@<TRIPOS>MOLECULE
~{N}-methyl-2-[[3-[(~{E})-2-(2-pyridyl)vinyl]-1~{H}-indazol-6-yl]sulfanyl]benzamide
   46    49     0     0     0
SMALL
USER_CHARGES

@<TRIPOS>ATOM
      1 C1         -0.5755   -3.0907    3.5024 C.3       1 MOL         0.0802
      2 N1         -0.7609   -3.0963    2.0691 N.am      1 MOL        -0.5743
      3 C2         -1.5516   -2.1623    1.4188 C.2       1 MOL         0.6672
      4 O1         -2.1644   -1.2531    1.9723 O.2       1 MOL        -0.5832
      5 C3         -1.6595   -2.3172   -0.0276 C.ar      1 MOL        -0.1328
      6 C4         -2.1927   -3.5113   -0.5130 C.ar      1 MOL        -0.0937
      7 C5         -2.3193   -3.7106   -1.8878 C.ar      1 MOL        -0.1467
      8 C6         -1.9126   -2.7159   -2.7771 C.ar      1 MOL        -0.0974
      9 C7         -1.3794   -1.5219   -2.2916 C.ar      1 MOL        -0.1577
     10 C8         -1.2528   -1.3226   -0.9169 C.ar      1 MOL         0.0287
     11 S1         -0.5618    0.2240   -0.3504 S.3       1 MOL        -0.0864
     12 C9          0.8725   -0.3471    0.5479 C.ar      1 MOL        -0.0352
     13 C10         1.8575   -1.0770   -0.1202 C.ar      1 MOL        -0.1080
     14 C11         2.9942   -1.5392    0.5550 C.ar      1 MOL        -0.0801
     15 C12         3.1242   -1.2526    1.9242 C.ar      1 MOL        -0.1729
     16 C13         2.1285   -0.5238    2.5651 C.ar      1 MOL         0.0545
     17 C14         0.9878   -0.0537    1.9107 C.ar      1 MOL        -0.0801
     18 N2          2.5420   -0.4150    3.8654 N.pl3     1 MOL        -0.3860
     19 N3          3.7190   -1.0102    4.1207 N.2       1 MOL        -0.3947
     20 C15         4.0702   -1.5186    2.9374 C.2       1 MOL         0.3773
     21 C16         5.2721   -2.2471    2.7384 C.2       1 MOL        -0.1776
     22 C17         6.2213   -2.5307    3.6913 C.2       1 MOL        -0.1980
     23 C18         7.4594   -3.3037    3.4886 C.ar      1 MOL         0.4459
     24 C19         8.3270   -3.5111    4.5488 C.ar      1 MOL        -0.2368
     25 C20         9.4824   -4.2469    4.3098 C.ar      1 MOL        -0.0928
     26 C21         9.7311   -4.7458    3.0360 C.ar      1 MOL        -0.2453
     27 C22         8.8006   -4.4832    2.0435 C.ar      1 MOL         0.3986
     28 N4          7.6671   -3.7725    2.2377 N.ar      1 MOL        -0.6566
     29 H1         -1.3422   -3.7041    3.9829 H         1 MOL         0.0431
     30 H2         -0.6478   -2.0704    3.8889 H         1 MOL         0.0431
     31 H3          0.4084   -3.4932    3.7579 H         1 MOL         0.0431
     32 H4         -0.2950   -3.8103    1.5188 H         1 MOL         0.3101
     33 H5         -2.5131   -4.2949    0.1691 H         1 MOL         0.1410
     34 H6         -2.7340   -4.6407   -2.2659 H         1 MOL         0.1378
     35 H7         -2.0117   -2.8712   -3.8472 H         1 MOL         0.1360
     36 H8         -1.0686   -0.7600   -3.0024 H         1 MOL         0.1467
     37 H9          1.7598   -1.3008   -1.1806 H         1 MOL         0.1544
     38 H10         3.7515   -2.1056    0.0213 H         1 MOL         0.1449
     39 H11         0.2325    0.5123    2.4465 H         1 MOL         0.1523
     40 H12         2.0676    0.0523    4.6279 H         1 MOL         0.4865
     41 H13         5.4618   -2.6595    1.7240 H         1 MOL         0.1330
     42 H14         6.0533   -2.1891    4.7098 H         1 MOL         0.1617
     43 H15         8.1262   -3.1187    5.5406 H         1 MOL         0.1438
     44 H16        10.1874   -4.4325    5.1146 H         1 MOL         0.1387
     45 H17        10.6254   -5.3213    2.8270 H         1 MOL         0.1440
     46 H18         8.9483   -4.8486    1.0326 H         1 MOL         0.0235
@<TRIPOS>BOND
     1    1    2 1
     2    2    3 am
     3    3    4 2
     4    3    5 1
     5    5   10 ar
     6    5    6 ar
     7    6    7 ar
     8    7    8 ar
     9    8    9 ar
    10    9   10 ar
    11   10   11 1
    12   11   12 1
    13   12   17 ar
    14   12   13 ar
    15   13   14 ar
    16   14   15 ar
    17   15   20 1
    18   15   16 ar
    19   16   17 ar
    20   16   18 1
    21   18   19 1
    22   19   20 2
    23   20   21 1
    24   21   22 2
    25   22   23 1
    26   23   28 ar
    27   23   24 ar
    28   24   25 ar
    29   25   26 ar
    30   26   27 ar
    31   27   28 ar
    32    1   29 1
    33    1   30 1
    34    1   31 1
    35    2   32 1
    36    6   33 1
    37    7   34 1
    38    8   35 1
    39    9   36 1
    40   13   37 1
    41   14   38 1
    42   17   39 1
    43   18   40 1
    44   21   41 1
    45   22   42 1
    46   24   43 1
    47   25   44 1
    48   26   45 1
    49   27   46 1
@<TRIPOS>MOLECULE
~{N}-methyl-2-[[3-[(~{E})-2-(2-pyridyl)vinyl]-1~{H}-indazol-6-yl]sulfanyl]benzamide
   46    49     0     0     0
SMALL
USER_CHARGES

@<TRIPOS>ATOM
      1 C1          4.2484    1.6289   -1.1991 C.3       1 MOL         0.0802
      2 N1          3.0399    2.1895   -0.6389 N.am      1 MOL        -0.5743
      3 C2          1.8060    2.0617   -1.2566 C.2       1 MOL         0.6672
      4 O1          1.6087    1.4751   -2.3175 O.2       1 MOL        -0.5832
      5 C3          0.6860    2.7055   -0.5793 C.ar      1 MOL        -0.1328
      6 C4          0.7526    4.0854   -0.3861 C.ar      1 MOL        -0.0937
      7 C5         -0.2921    4.7511    0.2550 C.ar      1 MOL        -0.1467
      8 C6         -1.4034    4.0370    0.7030 C.ar      1 MOL        -0.0974
      9 C7         -1.4700    2.6571    0.5098 C.ar      1 MOL        -0.1577
     10 C8         -0.4253    1.9914   -0.1313 C.ar      1 MOL         0.0287
     11 S1         -0.5618    0.2240   -0.3504 S.3       1 MOL        -0.0864
     12 C9          0.8725   -0.3471    0.5479 C.ar      1 MOL        -0.0352
     13 C10         1.8575   -1.0770   -0.1202 C.ar      1 MOL        -0.1080
     14 C11         2.9942   -1.5392    0.5550 C.ar      1 MOL        -0.0801
     15 C12         3.1242   -1.2526    1.9242 C.ar      1 MOL        -0.1729
     16 C13         2.1285   -0.5238    2.5651 C.ar      1 MOL         0.0545
     17 C14         0.9878   -0.0537    1.9107 C.ar      1 MOL        -0.0801
     18 N2          2.5420   -0.4150    3.8654 N.pl3     1 MOL        -0.3860
     19 N3          3.7190   -1.0102    4.1207 N.2       1 MOL        -0.3947
     20 C15         4.0702   -1.5186    2.9374 C.2       1 MOL         0.3773
     21 C16         5.2721   -2.2471    2.7384 C.2       1 MOL        -0.1776
     22 C17         6.2213   -2.5307    3.6913 C.2       1 MOL        -0.1980
     23 C18         7.4594   -3.3037    3.4886 C.ar      1 MOL         0.4459
     24 C19         8.3270   -3.5111    4.5488 C.ar      1 MOL        -0.2368
     25 C20         9.4824   -4.2469    4.3098 C.ar      1 MOL        -0.0928
     26 C21         9.7311   -4.7458    3.0360 C.ar      1 MOL        -0.2453
     27 C22         8.8006   -4.4832    2.0435 C.ar      1 MOL         0.3986
     28 N4          7.6671   -3.7725    2.2377 N.ar      1 MOL        -0.6566
     29 H1          4.7294    2.3560   -1.8585 H         1 MOL         0.0431
     30 H2          4.0157    0.7301   -1.7766 H         1 MOL         0.0431
     31 H3          4.9464    1.3617   -0.4012 H         1 MOL         0.0431
     32 H4          3.0970    2.6953    0.2390 H         1 MOL         0.3101
     33 H5          1.6132    4.6539   -0.7299 H         1 MOL         0.1410
     34 H6         -0.2400    5.8256    0.4061 H         1 MOL         0.1378
     35 H7         -2.2168    4.5556    1.2017 H         1 MOL         0.1360
     36 H8         -2.3453    2.1201    0.8670 H         1 MOL         0.1467
     37 H9          1.7598   -1.3008   -1.1806 H         1 MOL         0.1544
     38 H10         3.7515   -2.1056    0.0213 H         1 MOL         0.1449
     39 H11         0.2325    0.5123    2.4465 H         1 MOL         0.1523
     40 H12         2.0676    0.0523    4.6279 H         1 MOL         0.4865
     41 H13         5.4618   -2.6595    1.7240 H         1 MOL         0.1330
     42 H14         6.0533   -2.1891    4.7098 H         1 MOL         0.1617
     43 H15         8.1262   -3.1187    5.5406 H         1 MOL         0.1438
     44 H16        10.1874   -4.4325    5.1146 H         1 MOL         0.1387
     45 H17        10.6254   -5.3213    2.8270 H         1 MOL         0.1440
     46 H18         8.9483   -4.8486    1.0326 H         1 MOL         0.0235
@<TRIPOS>BOND
     1    1    2 1
     2    2    3 am
     3    3    4 2
     4    3    5 1
     5    5   10 ar
     6    5    6 ar
     7    6    7 ar
     8    7    8 ar
     9    8    9 ar
    10    9   10 ar
    11   10   11 1
    12   11   12 1
    13   12   17 ar
    14   12   13 ar
    15   13   14 ar
    16   14   15 ar
    17   15   20 1
    18   15   16 ar
    19   16   17 ar
    20   16   18 1
    21   18   19 1
    22   19   20 2
    23   20   21 1
    24   21   22 2
    25   22   23 1
    26   23   28 ar
    27   23   24 ar
    28   24   25 ar
    29   25   26 ar
    30   26   27 ar
    31   27   28 ar
    32    1   29 1
    33    1   30 1
    34    1   31 1
    35    2   32 1
    36    6   33 1
    37    7   34 1
    38    8   35 1
    39    9   36 1
    40   13   37 1
    41   14   38 1
    42   17   39 1
    43   18   40 1
    44   21   41 1
    45   22   42 1
    46   24   43 1
    47   25   44 1
    48   26   45 1
    49   27   46 1
@<TRIPOS>MOLECULE
~{N}-methyl-2-[[3-[(~{E})-2-(2-pyridyl)vinyl]-1~{H}-indazol-6-yl]sulfanyl]benzamide
   46    49     0     0     0
SMALL
USER_CHARGES

@<TRIPOS>ATOM
      1 C1         -0.6084    3.4325    3.5630 C.3       1 MOL         0.0802
      2 N1         -0.0997    3.4119    2.2104 N.am      1 MOL        -0.5743
      3 C2         -0.8556    2.9625    1.1394 C.2       1 MOL         0.6672
      4 O1         -2.0077    2.5443    1.2187 O.2       1 MOL        -0.5832
      5 C3         -0.1915    2.9797   -0.1593 C.ar      1 MOL        -0.1328
      6 C4          0.2609    4.2089   -0.6390 C.ar      1 MOL        -0.0937
      7 C5          0.9037    4.2814   -1.8748 C.ar      1 MOL        -0.1467
      8 C6          1.0940    3.1248   -2.6309 C.ar      1 MOL        -0.0974
      9 C7          0.6416    1.8956   -2.1511 C.ar      1 MOL        -0.1577
     10 C8         -0.0012    1.8231   -0.9153 C.ar      1 MOL         0.0287
     11 S1         -0.5618    0.2240   -0.3504 S.3       1 MOL        -0.0864
     12 C9          0.8725   -0.3471    0.5479 C.ar      1 MOL        -0.0352
     13 C10         1.8575   -1.0770   -0.1202 C.ar      1 MOL        -0.1080
     14 C11         2.9942   -1.5392    0.5550 C.ar      1 MOL        -0.0801
     15 C12         3.1242   -1.2526    1.9242 C.ar      1 MOL        -0.1729
     16 C13         2.1285   -0.5238    2.5651 C.ar      1 MOL         0.0545
     17 C14         0.9878   -0.0537    1.9107 C.ar      1 MOL        -0.0801
     18 N2          2.5420   -0.4150    3.8654 N.pl3     1 MOL        -0.3860
     19 N3          3.7190   -1.0102    4.1207 N.2       1 MOL        -0.3947
     20 C15         4.0702   -1.5186    2.9374 C.2       1 MOL         0.3773
     21 C16         5.2721   -2.2471    2.7384 C.2       1 MOL        -0.1776
     22 C17         6.2213   -2.5307    3.6913 C.2       1 MOL        -0.1980
     23 C18         7.4594   -3.3037    3.4886 C.ar      1 MOL         0.4459
     24 C19         8.3270   -3.5111    4.5488 C.ar      1 MOL        -0.2368
     25 C20         9.4824   -4.2469    4.3098 C.ar      1 MOL        -0.0928
     26 C21         9.7311   -4.7458    3.0360 C.ar      1 MOL        -0.2453
     27 C22         8.8006   -4.4832    2.0435 C.ar      1 MOL         0.3986
     28 N4          7.6671   -3.7725    2.2377 N.ar      1 MOL        -0.6566
     29 H1         -0.3851    2.4864    4.0629 H         1 MOL         0.0431
     30 H2         -1.6918    3.5803    3.5571 H         1 MOL         0.0431
     31 H3         -0.1467    4.2467    4.1281 H         1 MOL         0.0431
     32 H4          0.8457    3.7384    2.0387 H         1 MOL         0.3101
     33 H5          0.1185    5.1181   -0.0601 H         1 MOL         0.1410
     34 H6          1.2555    5.2387   -2.2487 H         1 MOL         0.1378
     35 H7          1.5949    3.1815   -3.5927 H         1 MOL         0.1360
     36 H8          0.8003    1.0066   -2.7567 H         1 MOL         0.1467
     37 H9          1.7598   -1.3008   -1.1806 H         1 MOL         0.1544
     38 H10         3.7515   -2.1056    0.0213 H         1 MOL         0.1449
     39 H11         0.2325    0.5123    2.4465 H         1 MOL         0.1523
     40 H12         2.0676    0.0523    4.6279 H         1 MOL         0.4865
     41 H13         5.4618   -2.6595    1.7240 H         1 MOL         0.1330
     42 H14         6.0533   -2.1891    4.7098 H         1 MOL         0.1617
     43 H15         8.1262   -3.1187    5.5406 H         1 MOL         0.1438
     44 H16        10.1874   -4.4325    5.1146 H         1 MOL         0.1387
     45 H17        10.6254   -5.3213    2.8270 H         1 MOL         0.1440
     46 H18         8.9483   -4.8486    1.0326 H         1 MOL         0.0235
@<TRIPOS>BOND
     1    1    2 1
     2    2    3 am
     3    3    4 2
     4    3    5 1
     5    5   10 ar
     6    5    6 ar
     7    6    7 ar
     8    7    8 ar
     9    8    9 ar
    10    9   10 ar
    11   10   11 1
    12   11   12 1
    13   12   17 ar
    14   12   13 ar
    15   13   14 ar
    16   14   15 ar
    17   15   20 1
    18   15   16 ar
    19   16   17 ar
    20   16   18 1
    21   18   19 1
    22   19   20 2
    23   20   21 1
    24   21   22 2
    25   22   23 1
    26   23   28 ar
    27   23   24 ar
    28   24   25 ar
    29   25   26 ar
    30   26   27 ar
    31   27   28 ar
    32    1   29 1
    33    1   30 1
    34    1   31 1
    35    2   32 1
    36    6   33 1
    37    7   34 1
    38    8   35 1
    39    9   36 1
    40   13   37 1
    41   14   38 1
    42   17   39 1
    43   18   40 1
    44   21   41 1
    45   22   42 1
    46   24   43 1
    47   25   44 1
    48   26   45 1
    49   27   46 1
@<TRIPOS>MOLECULE
~{N}-methyl-2-[[3-[(~{E})-2-(2-pyridyl)vinyl]-1~{H}-indazol-6-yl]sulfanyl]benzamide
   46    49     0     0     0
SMALL
USER_CHARGES

@<TRIPOS>ATOM
      1 C1          0.9381   -3.5631   -3.3537 C.3       1 MOL         0.0802
      2 N1          0.0036   -3.3729   -2.2678 N.am      1 MOL        -0.5743
      3 C2         -0.8497   -2.2828   -2.2046 C.2       1 MOL         0.6672
      4 O1         -0.9046   -1.3840   -3.0399 O.2       1 MOL        -0.5832
      5 C3         -1.7152   -2.2198   -1.0321 C.ar      1 MOL        -0.1328
      6 C4         -2.6029   -3.2757   -0.8249 C.ar      1 MOL        -0.0937
      7 C5         -3.4521   -3.2660    0.2816 C.ar      1 MOL        -0.1467
      8 C6         -3.4137   -2.2004    1.1809 C.ar      1 MOL        -0.0974
      9 C7         -2.5261   -1.1446    0.9737 C.ar      1 MOL        -0.1577
     10 C8         -1.6769   -1.1542   -0.1328 C.ar      1 MOL         0.0287
     11 S1         -0.5618    0.2240   -0.3504 S.3       1 MOL        -0.0864
     12 C9          0.8725   -0.3471    0.5479 C.ar      1 MOL        -0.0352
     13 C10         1.8575   -1.0770   -0.1202 C.ar      1 MOL        -0.1080
     14 C11         2.9942   -1.5392    0.5550 C.ar      1 MOL        -0.0801
     15 C12         3.1242   -1.2526    1.9242 C.ar      1 MOL        -0.1729
     16 C13         2.1285   -0.5238    2.5651 C.ar      1 MOL         0.0545
     17 C14         0.9878   -0.0537    1.9107 C.ar      1 MOL        -0.0801
     18 N2          2.5420   -0.4150    3.8654 N.pl3     1 MOL        -0.3860
     19 N3          3.7190   -1.0102    4.1207 N.2       1 MOL        -0.3947
     20 C15         4.0702   -1.5186    2.9374 C.2       1 MOL         0.3773
     21 C16         5.2721   -2.2471    2.7384 C.2       1 MOL        -0.1776
     22 C17         6.2213   -2.5307    3.6913 C.2       1 MOL        -0.1980
     23 C18         7.4594   -3.3037    3.4886 C.ar      1 MOL         0.4459
     24 C19         8.3270   -3.5111    4.5488 C.ar      1 MOL        -0.2368
     25 C20         9.4824   -4.2469    4.3098 C.ar      1 MOL        -0.0928
     26 C21         9.7311   -4.7458    3.0360 C.ar      1 MOL        -0.2453
     27 C22         8.8006   -4.4832    2.0435 C.ar      1 MOL         0.3986
     28 N4          7.6671   -3.7725    2.2377 N.ar      1 MOL        -0.6566
     29 H1          1.8924   -3.0859   -3.1160 H         1 MOL         0.0431
     30 H2          0.5437   -3.1225   -4.2733 H         1 MOL         0.0431
     31 H3          1.1102   -4.6296   -3.5218 H         1 MOL         0.0431
     32 H4         -0.0290   -4.0629   -1.5243 H         1 MOL         0.3101
     33 H5         -2.6433   -4.1121   -1.5184 H         1 MOL         0.1410
     34 H6         -4.1438   -4.0879    0.4426 H         1 MOL         0.1378
     35 H7         -4.0747   -2.1934    2.0424 H         1 MOL         0.1360
     36 H8         -2.5128   -0.3241    1.6870 H         1 MOL         0.1467
     37 H9          1.7598   -1.3008   -1.1806 H         1 MOL         0.1544
     38 H10         3.7515   -2.1056    0.0213 H         1 MOL         0.1449
     39 H11         0.2325    0.5123    2.4465 H         1 MOL         0.1523
     40 H12         2.0676    0.0523    4.6279 H         1 MOL         0.4865
     41 H13         5.4618   -2.6595    1.7240 H         1 MOL         0.1330
     42 H14         6.0533   -2.1891    4.7098 H         1 MOL         0.1617
     43 H15         8.1262   -3.1187    5.5406 H         1 MOL         0.1438
     44 H16        10.1874   -4.4325    5.1146 H         1 MOL         0.1387
     45 H17        10.6254   -5.3213    2.8270 H         1 MOL         0.1440
     46 H18         8.9483   -4.8486    1.0326 H         1 MOL         0.0235
@<TRIPOS>BOND
     1    1    2 1
     2    2    3 am
     3    3    4 2
     4    3    5 1
     5    5   10 ar
     6    5    6 ar
     7    6    7 ar
     8    7    8 ar
     9    8    9 ar
    10    9   10 ar
    11   10   11 1
    12   11   12 1
    13   12   17 ar
    14   12   13 ar
    15   13   14 ar
    16   14   15 ar
    17   15   20 1
    18   15   16 ar
    19   16   17 ar
    20   16   18 1
    21   18   19 1
    22   19   20 2
    23   20   21 1
    24   21   22 2
    25   22   23 1
    26   23   28 ar
    27   23   24 ar
    28   24   25 ar
    29   25   26 ar
    30   26   27 ar
    31   27   28 ar
    32    1   29 1
    33    1   30 1
    34    1   31 1
    35    2   32 1
    36    6   33 1
    37    7   34 1
    38    8   35 1
    39    9   36 1
    40   13   37 1
    41   14   38 1
    42   17   39 1
    43   18   40 1
    44   21   41 1
    45   22   42 1
    46   24   43 1
    47   25   44 1
    48   26   45 1
    49   27   46 1
@<TRIPOS>MOLECULE
~{N}-methyl-2-[[3-[(~{E})-2-(2-pyridyl)vinyl]-1~{H}-indazol-6-yl]sulfanyl]benzamide
   46    49     0     0     0
SMALL
USER_CHARGES

@<TRIPOS>ATOM
      1 C1         -2.9629    3.6567    2.5277 C.3       1 MOL         0.0802
      2 N1         -2.8935    2.2199    2.3879 N.am      1 MOL        -0.5743
      3 C2         -2.9437    1.5904    1.1543 C.2       1 MOL         0.6672
      4 O1         -3.0497    2.1669    0.0750 O.2       1 MOL        -0.5832
      5 C3         -2.8883    0.1330    1.1814 C.ar      1 MOL        -0.1328
      6 C4         -3.8954   -0.5406    1.8725 C.ar      1 MOL        -0.0937
      7 C5         -3.8907   -1.9343    1.9286 C.ar      1 MOL        -0.1467
      8 C6         -2.8788   -2.6544    1.2936 C.ar      1 MOL        -0.0974
      9 C7         -1.8717   -1.9807    0.6025 C.ar      1 MOL        -0.1577
     10 C8         -1.8764   -0.5870    0.5464 C.ar      1 MOL         0.0287
     11 S1         -0.5618    0.2240   -0.3504 S.3       1 MOL        -0.0864
     12 C9          0.8725   -0.3471    0.5479 C.ar      1 MOL        -0.0352
     13 C10         1.8575   -1.0770   -0.1202 C.ar      1 MOL        -0.1080
     14 C11         2.9942   -1.5392    0.5550 C.ar      1 MOL        -0.0801
     15 C12         3.1242   -1.2526    1.9242 C.ar      1 MOL        -0.1729
     16 C13         2.1285   -0.5238    2.5651 C.ar      1 MOL         0.0545
     17 C14         0.9878   -0.0537    1.9107 C.ar      1 MOL        -0.0801
     18 N2          2.5420   -0.4150    3.8654 N.pl3     1 MOL        -0.3860
     19 N3          3.7190   -1.0102    4.1207 N.2       1 MOL        -0.3947
     20 C15         4.0702   -1.5186    2.9374 C.2       1 MOL         0.3773
     21 C16         5.2721   -2.2471    2.7384 C.2       1 MOL        -0.1776
     22 C17         6.2213   -2.5307    3.6913 C.2       1 MOL        -0.1980
     23 C18         7.4594   -3.3037    3.4886 C.ar      1 MOL         0.4459
     24 C19         8.3270   -3.5111    4.5488 C.ar      1 MOL        -0.2368
     25 C20         9.4824   -4.2469    4.3098 C.ar      1 MOL        -0.0928
     26 C21         9.7311   -4.7458    3.0360 C.ar      1 MOL        -0.2453
     27 C22         8.8006   -4.4832    2.0435 C.ar      1 MOL         0.3986
     28 N4          7.6671   -3.7725    2.2377 N.ar      1 MOL        -0.6566
     29 H1         -4.0035    3.9740    2.6344 H         1 MOL         0.0431
     30 H2         -2.5352    4.1433    1.6469 H         1 MOL         0.0431
     31 H3         -2.4047    3.9779    3.4112 H         1 MOL         0.0431
     32 H4         -2.8047    1.6512    3.2236 H         1 MOL         0.3101
     33 H5         -4.6897    0.0085    2.3722 H         1 MOL         0.1410
     34 H6         -4.6746   -2.4590    2.4672 H         1 MOL         0.1378
     35 H7         -2.8756   -3.7394    1.3370 H         1 MOL         0.1360
     36 H8         -1.0926   -2.5616    0.1148 H         1 MOL         0.1467
     37 H9          1.7598   -1.3008   -1.1806 H         1 MOL         0.1544
     38 H10         3.7515   -2.1056    0.0213 H         1 MOL         0.1449
     39 H11         0.2325    0.5123    2.4465 H         1 MOL         0.1523
     40 H12         2.0676    0.0523    4.6279 H         1 MOL         0.4865
     41 H13         5.4618   -2.6595    1.7240 H         1 MOL         0.1330
     42 H14         6.0533   -2.1891    4.7098 H         1 MOL         0.1617
     43 H15         8.1262   -3.1187    5.5406 H         1 MOL         0.1438
     44 H16        10.1874   -4.4325    5.1146 H         1 MOL         0.1387
     45 H17        10.6254   -5.3213    2.8270 H         1 MOL         0.1440
     46 H18         8.9483   -4.8486    1.0326 H         1 MOL         0.0235
@<TRIPOS>BOND
     1    1    2 1
     2    2    3 am
     3    3    4 2
     4    3    5 1
     5    5   10 ar
     6    5    6 ar
     7    6    7 ar
     8    7    8 ar
     9    8    9 ar
    10    9   10 ar
    11   10   11 1
    12   11   12 1
    13   12   17 ar
    14   12   13 ar
    15   13   14 ar
    16   14   15 ar
    17   15   20 1
    18   15   16 ar
    19   16   17 ar
    20   16   18 1
    21   18   19 1
    22   19   20 2
    23   20   21 1
    24   21   22 2
    25   22   23 1
    26   23   28 ar
    27   23   24 ar
    28   24   25 ar
    29   25   26 ar
    30   26   27 ar
    31   27   28 ar
    32    1   29 1
    33    1   30 1
    34    1   31 1
    35    2   32 1
    36    6   33 1
    37    7   34 1
    38    8   35 1
    39    9   36 1
    40   13   37 1
    41   14   38 1
    42   17   39 1
    43   18   40 1
    44   21   41 1
    45   22   42 1
    46   24   43 1
    47   25   44 1
    48   26   45 1
    49   27   46 1
@<TRIPOS>MOLECULE
~{N}-methyl-2-[[3-[(~{E})-2-(2-pyridyl)vinyl]-1~{H}-indazol-6-yl]sulfanyl]benzamide
   46    49     0     0     0
SMALL
USER_CHARGES

@<TRIPOS>ATOM
      1 C1         -0.6952   -2.1995   -4.8160 C.3       1 MOL         0.0802
      2 N1         -0.0502   -1.0471   -4.2287 N.am      1 MOL        -0.5743
      3 C2         -0.7379   -0.1238   -3.4574 C.2       1 MOL         0.6672
      4 O1         -1.9365   -0.1809   -3.1951 O.2       1 MOL        -0.5832
      5 C3          0.0483    0.9984   -2.9572 C.ar      1 MOL        -0.1328
      6 C4          0.6608    1.8292   -3.8955 C.ar      1 MOL        -0.0937
      7 C5          1.4232    2.9175   -3.4711 C.ar      1 MOL        -0.1467
      8 C6          1.5731    3.1750   -2.1085 C.ar      1 MOL        -0.0974
      9 C7          0.9607    2.3442   -1.1702 C.ar      1 MOL        -0.1577
     10 C8          0.1983    1.2559   -1.5946 C.ar      1 MOL         0.0287
     11 S1         -0.5618    0.2240   -0.3504 S.3       1 MOL        -0.0864
     12 C9          0.8725   -0.3471    0.5479 C.ar      1 MOL        -0.0352
     13 C10         1.8575   -1.0770   -0.1202 C.ar      1 MOL        -0.1080
     14 C11         2.9942   -1.5392    0.5550 C.ar      1 MOL        -0.0801
     15 C12         3.1242   -1.2526    1.9242 C.ar      1 MOL        -0.1729
     16 C13         2.1285   -0.5238    2.5651 C.ar      1 MOL         0.0545
     17 C14         0.9878   -0.0537    1.9107 C.ar      1 MOL        -0.0801
     18 N2          2.5420   -0.4150    3.8654 N.pl3     1 MOL        -0.3860
     19 N3          3.7190   -1.0102    4.1207 N.2       1 MOL        -0.3947
     20 C15         4.0702   -1.5186    2.9374 C.2       1 MOL         0.3773
     21 C16         5.2721   -2.2471    2.7384 C.2       1 MOL        -0.1776
     22 C17         6.2213   -2.5307    3.6913 C.2       1 MOL        -0.1980
     23 C18         7.4594   -3.3037    3.4886 C.ar      1 MOL         0.4459
     24 C19         8.3270   -3.5111    4.5488 C.ar      1 MOL        -0.2368
     25 C20         9.4824   -4.2469    4.3098 C.ar      1 MOL        -0.0928
     26 C21         9.7311   -4.7458    3.0360 C.ar      1 MOL        -0.2453
     27 C22         8.8006   -4.4832    2.0435 C.ar      1 MOL         0.3986
     28 N4          7.6671   -3.7725    2.2377 N.ar      1 MOL        -0.6566
     29 H1         -1.0733   -1.9518   -5.8112 H         1 MOL         0.0431
     30 H2         -1.5326   -2.5229   -4.1918 H         1 MOL         0.0431
     31 H3          0.0152   -3.0258   -4.9049 H         1 MOL         0.0431
     32 H4          0.9426   -0.9091   -4.3870 H         1 MOL         0.3101
     33 H5          0.5524    1.6396   -4.9606 H         1 MOL         0.1410
     34 H6          1.9006    3.5642   -4.2018 H         1 MOL         0.1378
     35 H7          2.1663    4.0225   -1.7784 H         1 MOL         0.1360
     36 H8          1.0907    2.5630   -0.1131 H         1 MOL         0.1467
     37 H9          1.7598   -1.3008   -1.1806 H         1 MOL         0.1544
     38 H10         3.7515   -2.1056    0.0213 H         1 MOL         0.1449
     39 H11         0.2325    0.5123    2.4465 H         1 MOL         0.1523
     40 H12         2.0676    0.0523    4.6279 H         1 MOL         0.4865
     41 H13         5.4618   -2.6595    1.7240 H         1 MOL         0.1330
     42 H14         6.0533   -2.1891    4.7098 H         1 MOL         0.1617
     43 H15         8.1262   -3.1187    5.5406 H         1 MOL         0.1438
     44 H16        10.1874   -4.4325    5.1146 H         1 MOL         0.1387
     45 H17        10.6254   -5.3213    2.8270 H         1 MOL         0.1440
     46 H18         8.9483   -4.8486    1.0326 H         1 MOL         0.0235
@<TRIPOS>BOND
     1    1    2 1
     2    2    3 am
     3    3    4 2
     4    3    5 1
     5    5   10 ar
     6    5    6 ar
     7    6    7 ar
     8    7    8 ar
     9    8    9 ar
    10    9   10 ar
    11   10   11 1
    12   11   12 1
    13   12   17 ar
    14   12   13 ar
    15   13   14 ar
    16   14   15 ar
    17   15   20 1
    18   15   16 ar
    19   16   17 ar
    20   16   18 1
    21   18   19 1
    22   19   20 2
    23   20   21 1
    24   21   22 2
    25   22   23 1
    26   23   28 ar
    27   23   24 ar
    28   24   25 ar
    29   25   26 ar
    30   26   27 ar
    31   27   28 ar
    32    1   29 1
    33    1   30 1
    34    1   31 1
    35    2   32 1
    36    6   33 1
    37    7   34 1
    38    8   35 1
    39    9   36 1
    40   13   37 1
    41   14   38 1
    42   17   39 1
    43   18   40 1
    44   21   41 1
    45   22   42 1
    46   24   43 1
    47   25   44 1
    48   26   45 1
    49   27   46 1
@<TRIPOS>MOLECULE
~{N}-methyl-2-[[3-[(~{E})-2-(2-pyridyl)vinyl]-1~{H}-indazol-6-yl]sulfanyl]benzamide
   46    49     0     0     0
SMALL
USER_CHARGES

@<TRIPOS>ATOM
      1 C1         -5.1192    2.0918    0.9040 C.3       1 MOL         0.0802
      2 N1         -3.8295    2.5822    0.4741 N.am      1 MOL        -0.5743
      3 C2         -2.6410    2.1231    1.0191 C.2       1 MOL         0.6672
      4 O1         -2.5546    1.2735    1.9019 O.2       1 MOL        -0.5832
      5 C3         -1.4239    2.7350    0.4975 C.ar      1 MOL        -0.1328
      6 C4         -1.2774    4.1142    0.6464 C.ar      1 MOL        -0.0937
      7 C5         -0.1322    4.7497    0.1666 C.ar      1 MOL        -0.1467
      8 C6          0.8665    4.0061   -0.4621 C.ar      1 MOL        -0.0974
      9 C7          0.7200    2.6269   -0.6110 C.ar      1 MOL        -0.1577
     10 C8         -0.4253    1.9914   -0.1313 C.ar      1 MOL         0.0287
     11 S1         -0.5618    0.2240   -0.3504 S.3       1 MOL        -0.0864
     12 C9          0.8725   -0.3471    0.5479 C.ar      1 MOL        -0.0352
     13 C10         1.8575   -1.0770   -0.1202 C.ar      1 MOL        -0.1080
     14 C11         2.9942   -1.5392    0.5550 C.ar      1 MOL        -0.0801
     15 C12         3.1242   -1.2526    1.9242 C.ar      1 MOL        -0.1729
     16 C13         2.1285   -0.5238    2.5651 C.ar      1 MOL         0.0545
     17 C14         0.9878   -0.0537    1.9107 C.ar      1 MOL        -0.0801
     18 N2          2.5420   -0.4150    3.8654 N.pl3     1 MOL        -0.3860
     19 N3          3.7190   -1.0102    4.1207 N.2       1 MOL        -0.3947
     20 C15         4.0702   -1.5186    2.9374 C.2       1 MOL         0.3773
     21 C16         5.2721   -2.2471    2.7384 C.2       1 MOL        -0.1776
     22 C17         6.2213   -2.5307    3.6913 C.2       1 MOL        -0.1980
     23 C18         7.4594   -3.3037    3.4886 C.ar      1 MOL         0.4459
     24 C19         8.3270   -3.5111    4.5488 C.ar      1 MOL        -0.2368
     25 C20         9.4824   -4.2469    4.3098 C.ar      1 MOL        -0.0928
     26 C21         9.7311   -4.7458    3.0360 C.ar      1 MOL        -0.2453
     27 C22         8.8006   -4.4832    2.0435 C.ar      1 MOL         0.3986
     28 N4          7.6671   -3.7725    2.2377 N.ar      1 MOL        -0.6566
     29 H1         -5.4970    2.7012    1.7292 H         1 MOL         0.0431
     30 H2         -5.0360    1.0551    1.2416 H         1 MOL         0.0431
     31 H3         -5.8345    2.1351    0.0783 H         1 MOL         0.0431
     32 H4         -3.7929    3.2887   -0.2535 H         1 MOL         0.3101
     33 H5         -2.0484    4.7057    1.1341 H         1 MOL         0.1410
     34 H6         -0.0183    5.8238    0.2821 H         1 MOL         0.1378
     35 H7          1.7582    4.5011   -0.8351 H         1 MOL         0.1360
     36 H8          1.5105    2.0666   -1.1043 H         1 MOL         0.1467
     37 H9          1.7598   -1.3008   -1.1806 H         1 MOL         0.1544
     38 H10         3.7515   -2.1056    0.0213 H         1 MOL         0.1449
     39 H11         0.2325    0.5123    2.4465 H         1 MOL         0.1523
     40 H12         2.0676    0.0523    4.6279 H         1 MOL         0.4865
     41 H13         5.4618   -2.6595    1.7240 H         1 MOL         0.1330
     42 H14         6.0533   -2.1891    4.7098 H         1 MOL         0.1617
     43 H15         8.1262   -3.1187    5.5406 H         1 MOL         0.1438
     44 H16        10.1874   -4.4325    5.1146 H         1 MOL         0.1387
     45 H17        10.6254   -5.3213    2.8270 H         1 MOL         0.1440
     46 H18         8.9483   -4.8486    1.0326 H         1 MOL         0.0235
@<TRIPOS>BOND
     1    1    2 1
     2    2    3 am
     3    3    4 2
     4    3    5 1
     5    5   10 ar
     6    5    6 ar
     7    6    7 ar
     8    7    8 ar
     9    8    9 ar
    10    9   10 ar
    11   10   11 1
    12   11   12 1
    13   12   17 ar
    14   12   13 ar
    15   13   14 ar
    16   14   15 ar
    17   15   20 1
    18   15   16 ar
    19   16   17 ar
    20   16   18 1
    21   18   19 1
    22   19   20 2
    23   20   21 1
    24   21   22 2
    25   22   23 1
    26   23   28 ar
    27   23   24 ar
    28   24   25 ar
    29   25   26 ar
    30   26   27 ar
    31   27   28 ar
    32    1   29 1
    33    1   30 1
    34    1   31 1
    35    2   32 1
    36    6   33 1
    37    7   34 1
    38    8   35 1
    39    9   36 1
    40   13   37 1
    41   14   38 1
    42   17   39 1
    43   18   40 1
    44   21   41 1
    45   22   42 1
    46   24   43 1
    47   25   44 1
    48   26   45 1
    49   27   46 1
@<TRIPOS>MOLECULE
~{N}-methyl-2-[[3-[(~{E})-2-(2-pyridyl)vinyl]-1~{H}-indazol-6-yl]sulfanyl]benzamide
   46    49     0     0     0
SMALL
USER_CHARGES

@<TRIPOS>ATOM
      1 C1         -1.8276    0.6750   -5.2521 C.3       1 MOL         0.0802
      2 N1         -2.0532   -0.2392   -4.1557 N.am      1 MOL        -0.5743
      3 C2         -1.0329   -0.6595   -3.3173 C.2       1 MOL         0.6672
      4 O1          0.1414   -0.3119   -3.4105 O.2       1 MOL        -0.5832
      5 C3         -1.4160   -1.6035   -2.2733 C.ar      1 MOL        -0.1328
      6 C4         -1.9615   -2.8238   -2.6721 C.ar      1 MOL        -0.0937
      7 C5         -2.3437   -3.7632   -1.7144 C.ar      1 MOL        -0.1467
      8 C6         -2.1804   -3.4823   -0.3579 C.ar      1 MOL        -0.0974
      9 C7         -1.6350   -2.2619    0.0408 C.ar      1 MOL        -0.1577
     10 C8         -1.2528   -1.3226   -0.9169 C.ar      1 MOL         0.0287
     11 S1         -0.5618    0.2240   -0.3504 S.3       1 MOL        -0.0864
     12 C9          0.8725   -0.3471    0.5479 C.ar      1 MOL        -0.0352
     13 C10         1.8575   -1.0770   -0.1202 C.ar      1 MOL        -0.1080
     14 C11         2.9942   -1.5392    0.5550 C.ar      1 MOL        -0.0801
     15 C12         3.1242   -1.2526    1.9242 C.ar      1 MOL        -0.1729
     16 C13         2.1285   -0.5238    2.5651 C.ar      1 MOL         0.0545
     17 C14         0.9878   -0.0537    1.9107 C.ar      1 MOL        -0.0801
     18 N2          2.5420   -0.4150    3.8654 N.pl3     1 MOL        -0.3860
     19 N3          3.7190   -1.0102    4.1207 N.2       1 MOL        -0.3947
     20 C15         4.0702   -1.5186    2.9374 C.2       1 MOL         0.3773
     21 C16         5.2721   -2.2471    2.7384 C.2       1 MOL        -0.1776
     22 C17         6.2213   -2.5307    3.6913 C.2       1 MOL        -0.1980
     23 C18         7.4594   -3.3037    3.4886 C.ar      1 MOL         0.4459
     24 C19         8.3270   -3.5111    4.5488 C.ar      1 MOL        -0.2368
     25 C20         9.4824   -4.2469    4.3098 C.ar      1 MOL        -0.0928
     26 C21         9.7311   -4.7458    3.0360 C.ar      1 MOL        -0.2453
     27 C22         8.8006   -4.4832    2.0435 C.ar      1 MOL         0.3986
     28 N4          7.6671   -3.7725    2.2377 N.ar      1 MOL        -0.6566
     29 H1         -1.5835    0.1188   -6.1609 H         1 MOL         0.0431
     30 H2         -0.9986    1.3484   -5.0183 H         1 MOL         0.0431
     31 H3         -2.7240    1.2734   -5.4359 H         1 MOL         0.0431
     32 H4         -2.9930   -0.5860   -3.9939 H         1 MOL         0.3101
     33 H5         -2.0946   -3.0553   -3.7261 H         1 MOL         0.1410
     34 H6         -2.7690   -4.7133   -2.0249 H         1 MOL         0.1378
     35 H7         -2.4776   -4.2139    0.3874 H         1 MOL         0.1360
     36 H8         -1.5167   -2.0635    1.1033 H         1 MOL         0.1467
     37 H9          1.7598   -1.3008   -1.1806 H         1 MOL         0.1544
     38 H10         3.7515   -2.1056    0.0213 H         1 MOL         0.1449
     39 H11         0.2325    0.5123    2.4465 H         1 MOL         0.1523
     40 H12         2.0676    0.0523    4.6279 H         1 MOL         0.4865
     41 H13         5.4618   -2.6595    1.7240 H         1 MOL         0.1330
     42 H14         6.0533   -2.1891    4.7098 H         1 MOL         0.1617
     43 H15         8.1262   -3.1187    5.5406 H         1 MOL         0.1438
     44 H16        10.1874   -4.4325    5.1146 H         1 MOL         0.1387
     45 H17        10.6254   -5.3213    2.8270 H         1 MOL         0.1440
     46 H18         8.9483   -4.8486    1.0326 H         1 MOL         0.0235
@<TRIPOS>BOND
     1    1    2 1
     2    2    3 am
     3    3    4 2
     4    3    5 1
     5    5   10 ar
     6    5    6 ar
     7    6    7 ar
     8    7    8 ar
     9    8    9 ar
    10    9   10 ar
    11   10   11 1
    12   11   12 1
    13   12   17 ar
    14   12   13 ar
    15   13   14 ar
    16   14   15 ar
    17   15   20 1
    18   15   16 ar
    19   16   17 ar
    20   16   18 1
    21   18   19 1
    22   19   20 2
    23   20   21 1
    24   21   22 2
    25   22   23 1
    26   23   28 ar
    27   23   24 ar
    28   24   25 ar
    29   25   26 ar
    30   26   27 ar
    31   27   28 ar
    32    1   29 1
    33    1   30 1
    34    1   31 1
    35    2   32 1
    36    6   33 1
    37    7   34 1
    38    8   35 1
    39    9   36 1
    40   13   37 1
    41   14   38 1
    42   17   39 1
    43   18   40 1
    44   21   41 1
    45   22   42 1
    46   24   43 1
    47   25   44 1
    48   26   45 1
    49   27   46 1
@<TRIPOS>MOLECULE
~{N}-methyl-2-[[3-[(~{E})-2-(2-pyridyl)vinyl]-1~{H}-indazol-6-yl]sulfanyl]benzamide
   46    49     0     0     0
SMALL
USER_CHARGES

@<TRIPOS>ATOM
      1 C1          0.6470    0.9741   -4.3147 C.3       1 MOL         0.0802
      2 N1          0.1308    1.5905   -3.1137 N.am      1 MOL        -0.5743
      3 C2          0.9470    2.2457   -2.2054 C.2       1 MOL         0.6672
      4 O1          2.1637    2.3715   -2.3173 O.2       1 MOL        -0.5832
      5 C3          0.2792    2.7928   -1.0296 C.ar      1 MOL        -0.1328
      6 C4          0.3621    4.1693   -0.8196 C.ar      1 MOL        -0.0937
      7 C5         -0.2596    4.7444    0.2887 C.ar      1 MOL        -0.1467
      8 C6         -0.9641    3.9430    1.1871 C.ar      1 MOL        -0.0974
      9 C7         -1.0470    2.5665    0.9771 C.ar      1 MOL        -0.1577
     10 C8         -0.4253    1.9914   -0.1313 C.ar      1 MOL         0.0287
     11 S1         -0.5618    0.2240   -0.3504 S.3       1 MOL        -0.0864
     12 C9          0.8725   -0.3471    0.5479 C.ar      1 MOL        -0.0352
     13 C10         1.8575   -1.0770   -0.1202 C.ar      1 MOL        -0.1080
     14 C11         2.9942   -1.5392    0.5550 C.ar      1 MOL        -0.0801
     15 C12         3.1242   -1.2526    1.9242 C.ar      1 MOL        -0.1729
     16 C13         2.1285   -0.5238    2.5651 C.ar      1 MOL         0.0545
     17 C14         0.9878   -0.0537    1.9107 C.ar      1 MOL        -0.0801
     18 N2          2.5420   -0.4150    3.8654 N.pl3     1 MOL        -0.3860
     19 N3          3.7190   -1.0102    4.1207 N.2       1 MOL        -0.3947
     20 C15         4.0702   -1.5186    2.9374 C.2       1 MOL         0.3773
     21 C16         5.2721   -2.2471    2.7384 C.2       1 MOL        -0.1776
     22 C17         6.2213   -2.5307    3.6913 C.2       1 MOL        -0.1980
     23 C18         7.4594   -3.3037    3.4886 C.ar      1 MOL         0.4459
     24 C19         8.3270   -3.5111    4.5488 C.ar      1 MOL        -0.2368
     25 C20         9.4824   -4.2469    4.3098 C.ar      1 MOL        -0.0928
     26 C21         9.7311   -4.7458    3.0360 C.ar      1 MOL        -0.2453
     27 C22         8.8006   -4.4832    2.0435 C.ar      1 MOL         0.3986
     28 N4          7.6671   -3.7725    2.2377 N.ar      1 MOL        -0.6566
     29 H1          0.9190   -0.0658   -4.1162 H         1 MOL         0.0431
     30 H2          1.5343    1.5097   -4.6630 H         1 MOL         0.0431
     31 H3         -0.1081    0.9956   -5.1051 H         1 MOL         0.0431
     32 H4         -0.8658    1.5417   -2.9287 H         1 MOL         0.3101
     33 H5          0.9084    4.8053   -1.5118 H         1 MOL         0.1410
     34 H6         -0.1946    5.8163    0.4526 H         1 MOL         0.1378
     35 H7         -1.4483    4.3910    2.0496 H         1 MOL         0.1360
     36 H8         -1.6010    1.9605    1.6898 H         1 MOL         0.1467
     37 H9          1.7598   -1.3008   -1.1806 H         1 MOL         0.1544
     38 H10         3.7515   -2.1056    0.0213 H         1 MOL         0.1449
     39 H11         0.2325    0.5123    2.4465 H         1 MOL         0.1523
     40 H12         2.0676    0.0523    4.6279 H         1 MOL         0.4865
     41 H13         5.4618   -2.6595    1.7240 H         1 MOL         0.1330
     42 H14         6.0533   -2.1891    4.7098 H         1 MOL         0.1617
     43 H15         8.1262   -3.1187    5.5406 H         1 MOL         0.1438
     44 H16        10.1874   -4.4325    5.1146 H         1 MOL         0.1387
     45 H17        10.6254   -5.3213    2.8270 H         1 MOL         0.1440
     46 H18         8.9483   -4.8486    1.0326 H         1 MOL         0.0235
@<TRIPOS>BOND
     1    1    2 1
     2    2    3 am
     3    3    4 2
     4    3    5 1
     5    5   10 ar
     6    5    6 ar
     7    6    7 ar
     8    7    8 ar
     9    8    9 ar
    10    9   10 ar
    11   10   11 1
    12   11   12 1
    13   12   17 ar
    14   12   13 ar
    15   13   14 ar
    16   14   15 ar
    17   15   20 1
    18   15   16 ar
    19   16   17 ar
    20   16   18 1
    21   18   19 1
    22   19   20 2
    23   20   21 1
    24   21   22 2
    25   22   23 1
    26   23   28 ar
    27   23   24 ar
    28   24   25 ar
    29   25   26 ar
    30   26   27 ar
    31   27   28 ar
    32    1   29 1
    33    1   30 1
    34    1   31 1
    35    2   32 1
    36    6   33 1
    37    7   34 1
    38    8   35 1
    39    9   36 1
    40   13   37 1
    41   14   38 1
    42   17   39 1
    43   18   40 1
    44   21   41 1
    45   22   42 1
    46   24   43 1
    47   25   44 1
    48   26   45 1
    49   27   46 1
@<TRIPOS>MOLECULE
~{N}-methyl-2-[[3-[(~{E})-2-(2-pyridyl)vinyl]-1~{H}-indazol-6-yl]sulfanyl]benzamide
   46    49     0     0     0
SMALL
USER_CHARGES

@<TRIPOS>ATOM
      1 C1         -3.7989    0.2816    2.3435 C.3       1 MOL         0.0802
      2 N1         -3.2948   -0.3300    1.1349 N.am      1 MOL        -0.5743
      3 C2         -2.6613   -1.5625    1.1346 C.2       1 MOL         0.6672
      4 O1         -2.4638   -2.2513    2.1322 O.2       1 MOL        -0.5832
      5 C3         -2.1859   -2.0329   -0.1617 C.ar      1 MOL        -0.1328
      6 C4         -2.6991   -3.2381   -0.6412 C.ar      1 MOL        -0.0937
      7 C5         -2.2792   -3.7328   -1.8760 C.ar      1 MOL        -0.1467
      8 C6         -1.3461   -3.0224   -2.6312 C.ar      1 MOL        -0.0974
      9 C7         -0.8329   -1.8173   -2.1516 C.ar      1 MOL        -0.1577
     10 C8         -1.2528   -1.3226   -0.9169 C.ar      1 MOL         0.0287
     11 S1         -0.5618    0.2240   -0.3504 S.3       1 MOL        -0.0864
     12 C9          0.8725   -0.3471    0.5479 C.ar      1 MOL        -0.0352
     13 C10         1.8575   -1.0770   -0.1202 C.ar      1 MOL        -0.1080
     14 C11         2.9942   -1.5392    0.5550 C.ar      1 MOL        -0.0801
     15 C12         3.1242   -1.2526    1.9242 C.ar      1 MOL        -0.1729
     16 C13         2.1285   -0.5238    2.5651 C.ar      1 MOL         0.0545
     17 C14         0.9878   -0.0537    1.9107 C.ar      1 MOL        -0.0801
     18 N2          2.5420   -0.4150    3.8654 N.pl3     1 MOL        -0.3860
     19 N3          3.7190   -1.0102    4.1207 N.2       1 MOL        -0.3947
     20 C15         4.0702   -1.5186    2.9374 C.2       1 MOL         0.3773
     21 C16         5.2721   -2.2471    2.7384 C.2       1 MOL        -0.1776
     22 C17         6.2213   -2.5307    3.6913 C.2       1 MOL        -0.1980
     23 C18         7.4594   -3.3037    3.4886 C.ar      1 MOL         0.4459
     24 C19         8.3270   -3.5111    4.5488 C.ar      1 MOL        -0.2368
     25 C20         9.4824   -4.2469    4.3098 C.ar      1 MOL        -0.0928
     26 C21         9.7311   -4.7458    3.0360 C.ar      1 MOL        -0.2453
     27 C22         8.8006   -4.4832    2.0435 C.ar      1 MOL         0.3986
     28 N4          7.6671   -3.7725    2.2377 N.ar      1 MOL        -0.6566
     29 H1         -3.0258    0.9053    2.7996 H         1 MOL         0.0431
     30 H2         -4.0983   -0.4881    3.0600 H         1 MOL         0.0431
     31 H3         -4.6671    0.9064    2.1172 H         1 MOL         0.0431
     32 H4         -3.4090    0.1611    0.2542 H         1 MOL         0.3101
     33 H5         -3.4266   -3.8020   -0.0625 H         1 MOL         0.1410
     34 H6         -2.6784   -4.6716   -2.2492 H         1 MOL         0.1378
     35 H7         -1.0198   -3.4076   -3.5926 H         1 MOL         0.1360
     36 H8         -0.1065   -1.2799   -2.7564 H         1 MOL         0.1467
     37 H9          1.7598   -1.3008   -1.1806 H         1 MOL         0.1544
     38 H10         3.7515   -2.1056    0.0213 H         1 MOL         0.1449
     39 H11         0.2325    0.5123    2.4465 H         1 MOL         0.1523
     40 H12         2.0676    0.0523    4.6279 H         1 MOL         0.4865
     41 H13         5.4618   -2.6595    1.7240 H         1 MOL         0.1330
     42 H14         6.0533   -2.1891    4.7098 H         1 MOL         0.1617
     43 H15         8.1262   -3.1187    5.5406 H         1 MOL         0.1438
     44 H16        10.1874   -4.4325    5.1146 H         1 MOL         0.1387
     45 H17        10.6254   -5.3213    2.8270 H         1 MOL         0.1440
     46 H18         8.9483   -4.8486    1.0326 H         1 MOL         0.0235
@<TRIPOS>BOND
     1    1    2 1
     2    2    3 am
     3    3    4 2
     4    3    5 1
     5    5   10 ar
     6    5    6 ar
     7    6    7 ar
     8    7    8 ar
     9    8    9 ar
    10    9   10 ar
    11   10   11 1
    12   11   12 1
    13   12   17 ar
    14   12   13 ar
    15   13   14 ar
    16   14   15 ar
    17   15   20 1
    18   15   16 ar
    19   16   17 ar
    20   16   18 1
    21   18   19 1
    22   19   20 2
    23   20   21 1
    24   21   22 2
    25   22   23 1
    26   23   28 ar
    27   23   24 ar
    28   24   25 ar
    29   25   26 ar
    30   26   27 ar
    31   27   28 ar
    32    1   29 1
    33    1   30 1
    34    1   31 1
    35    2   32 1
    36    6   33 1
    37    7   34 1
    38    8   35 1
    39    9   36 1
    40   13   37 1
    41   14   38 1
    42   17   39 1
    43   18   40 1
    44   21   41 1
    45   22   42 1
    46   24   43 1
    47   25   44 1
    48   26   45 1
    49   27   46 1
@<TRIPOS>MOLECULE
~{N}-methyl-2-[[3-[(~{E})-2-(2-pyridyl)vinyl]-1~{H}-indazol-6-yl]sulfanyl]benzamide
   46    49     0     0     0
SMALL
USER_CHARGES

@<TRIPOS>ATOM
      1 C1         -2.4117    0.3249    4.3824 C.3       1 MOL         0.0802
      2 N1         -2.3563   -0.5853    3.2612 N.am      1 MOL        -0.5743
      3 C2         -2.6314   -0.1832    1.9638 C.2       1 MOL         0.6672
      4 O1         -2.9437    0.9577    1.6330 O.2       1 MOL        -0.5832
      5 C3         -2.5582   -1.2255    0.9460 C.ar      1 MOL        -0.1328
      6 C4         -3.4112   -2.3212    1.0786 C.ar      1 MOL        -0.0937
      7 C5         -3.3829   -3.3456    0.1323 C.ar      1 MOL        -0.1467
      8 C6         -2.5016   -3.2743   -0.9465 C.ar      1 MOL        -0.0974
      9 C7         -1.6486   -2.1786   -1.0791 C.ar      1 MOL        -0.1577
     10 C8         -1.6769   -1.1542   -0.1328 C.ar      1 MOL         0.0287
     11 S1         -0.5618    0.2240   -0.3504 S.3       1 MOL        -0.0864
     12 C9          0.8725   -0.3471    0.5479 C.ar      1 MOL        -0.0352
     13 C10         1.8575   -1.0770   -0.1202 C.ar      1 MOL        -0.1080
     14 C11         2.9942   -1.5392    0.5550 C.ar      1 MOL        -0.0801
     15 C12         3.1242   -1.2526    1.9242 C.ar      1 MOL        -0.1729
     16 C13         2.1285   -0.5238    2.5651 C.ar      1 MOL         0.0545
     17 C14         0.9878   -0.0537    1.9107 C.ar      1 MOL        -0.0801
     18 N2          2.5420   -0.4150    3.8654 N.pl3     1 MOL        -0.3860
     19 N3          3.7190   -1.0102    4.1207 N.2       1 MOL        -0.3947
     20 C15         4.0702   -1.5186    2.9374 C.2       1 MOL         0.3773
     21 C16         5.2721   -2.2471    2.7384 C.2       1 MOL        -0.1776
     22 C17         6.2213   -2.5307    3.6913 C.2       1 MOL        -0.1980
     23 C18         7.4594   -3.3037    3.4886 C.ar      1 MOL         0.4459
     24 C19         8.0853   -3.2962    2.2525 C.ar      1 MOL        -0.2368
     25 C20         9.2513   -4.0400    2.1090 C.ar      1 MOL        -0.0928
     26 C21         9.7487   -4.7581    3.1908 C.ar      1 MOL        -0.2453
     27 C22         9.0485   -4.6999    4.3850 C.ar      1 MOL         0.3986
     28 N4          7.9126   -3.9887    4.5624 N.ar      1 MOL        -0.6566
     29 H1         -3.4166    0.3306    4.8124 H         1 MOL         0.0431
     30 H2         -2.1616    1.3390    4.0588 H         1 MOL         0.0431
     31 H3         -1.7005    0.0179    5.1540 H         1 MOL         0.0431
     32 H4         -2.1067   -1.5543    3.4300 H         1 MOL         0.3101
     33 H5         -4.1026   -2.3894    1.9149 H         1 MOL         0.1410
     34 H6         -4.0467   -4.1992    0.2358 H         1 MOL         0.1378
     35 H7         -2.4801   -4.0718   -1.6833 H         1 MOL         0.1360
     36 H8         -0.9695   -2.1434   -1.9275 H         1 MOL         0.1467
     37 H9          1.7598   -1.3008   -1.1806 H         1 MOL         0.1544
     38 H10         3.7515   -2.1056    0.0213 H         1 MOL         0.1449
     39 H11         0.2325    0.5123    2.4465 H         1 MOL         0.1523
     40 H12         2.0676    0.0523    4.6279 H         1 MOL         0.4865
     41 H13         5.4618   -2.6595    1.7240 H         1 MOL         0.1330
     42 H14         6.0533   -2.1891    4.7098 H         1 MOL         0.1617
     43 H15         7.6912   -2.7330    1.4125 H         1 MOL         0.1438
     44 H16         9.7725   -4.0594    1.1565 H         1 MOL         0.1387
     45 H17        10.6555   -5.3450    3.1013 H         1 MOL         0.1440
     46 H18         9.3937   -5.2432    5.2585 H         1 MOL         0.0235
@<TRIPOS>BOND
     1    1    2 1
     2    2    3 am
     3    3    4 2
     4    3    5 1
     5    5   10 ar
     6    5    6 ar
     7    6    7 ar
     8    7    8 ar
     9    8    9 ar
    10    9   10 ar
    11   10   11 1
    12   11   12 1
    13   12   17 ar
    14   12   13 ar
    15   13   14 ar
    16   14   15 ar
    17   15   20 1
    18   15   16 ar
    19   16   17 ar
    20   16   18 1
    21   18   19 1
    22   19   20 2
    23   20   21 1
    24   21   22 2
    25   22   23 1
    26   23   28 ar
    27   23   24 ar
    28   24   25 ar
    29   25   26 ar
    30   26   27 ar
    31   27   28 ar
    32    1   29 1
    33    1   30 1
    34    1   31 1
    35    2   32 1
    36    6   33 1
    37    7   34 1
    38    8   35 1
    39    9   36 1
    40   13   37 1
    41   14   38 1
    42   17   39 1
    43   18   40 1
    44   21   41 1
    45   22   42 1
    46   24   43 1
    47   25   44 1
    48   26   45 1
    49   27   46 1
@<TRIPOS>MOLECULE
~{N}-methyl-2-[[3-[(~{E})-2-(2-pyridyl)vinyl]-1~{H}-indazol-6-yl]sulfanyl]benzamide
   46    49     0     0     0
SMALL
USER_CHARGES

@<TRIPOS>ATOM
      1 C1         -0.1707   -4.0821    2.2793 C.3       1 MOL         0.0802
      2 N1         -0.8567   -2.8165    2.4068 N.am      1 MOL        -0.5743
      3 C2         -1.5255   -2.2242    1.3473 C.2       1 MOL         0.6672
      4 O1         -1.6069   -2.6954    0.2160 O.2       1 MOL        -0.5832
      5 C3         -2.1460   -0.9343    1.6283 C.ar      1 MOL        -0.1328
      6 C4         -3.1183   -0.8874    2.6275 C.ar      1 MOL        -0.0937
      7 C5         -3.7424    0.3210    2.9371 C.ar      1 MOL        -0.1467
      8 C6         -3.3943    1.4825    2.2476 C.ar      1 MOL        -0.0974
      9 C7         -2.4221    1.4355    1.2484 C.ar      1 MOL        -0.1577
     10 C8         -1.7980    0.2271    0.9388 C.ar      1 MOL         0.0287
     11 S1         -0.5618    0.2240   -0.3504 S.3       1 MOL        -0.0864
     12 C9          0.8725   -0.3471    0.5479 C.ar      1 MOL        -0.0352
     13 C10         1.8575   -1.0770   -0.1202 C.ar      1 MOL        -0.1080
     14 C11         2.9942   -1.5392    0.5550 C.ar      1 MOL        -0.0801
     15 C12         3.1242   -1.2526    1.9242 C.ar      1 MOL        -0.1729
     16 C13         2.1285   -0.5238    2.5651 C.ar      1 MOL         0.0545
     17 C14         0.9878   -0.0537    1.9107 C.ar      1 MOL        -0.0801
     18 N2          2.5420   -0.4150    3.8654 N.pl3     1 MOL        -0.3860
     19 N3          3.7190   -1.0102    4.1207 N.2       1 MOL        -0.3947
     20 C15         4.0702   -1.5186    2.9374 C.2       1 MOL         0.3773
     21 C16         5.2721   -2.2471    2.7384 C.2       1 MOL        -0.1776
     22 C17         6.2213   -2.5307    3.6913 C.2       1 MOL        -0.1980
     23 C18         7.4594   -3.3037    3.4886 C.ar      1 MOL         0.4459
     24 C19         8.3270   -3.5111    4.5488 C.ar      1 MOL        -0.2368
     25 C20         9.4824   -4.2469    4.3098 C.ar      1 MOL        -0.0928
     26 C21         9.7311   -4.7458    3.0360 C.ar      1 MOL        -0.2453
     27 C22         8.8006   -4.4832    2.0435 C.ar      1 MOL         0.3986
     28 N4          7.6671   -3.7725    2.2377 N.ar      1 MOL        -0.6566
     29 H1          0.8675   -3.9182    1.9790 H         1 MOL         0.0431
     30 H2         -0.6612   -4.7037    1.5253 H         1 MOL         0.0431
     31 H3         -0.1809   -4.6154    3.2337 H         1 MOL         0.0431
     32 H4         -0.8483   -2.3442    3.3049 H         1 MOL         0.3101
     33 H5         -3.3993   -1.7854    3.1723 H         1 MOL         0.1410
     34 H6         -4.4999    0.3575    3.7148 H         1 MOL         0.1378
     35 H7         -3.8801    2.4231    2.4891 H         1 MOL         0.1360
     36 H8         -2.1662    2.3526    0.7234 H         1 MOL         0.1467
     37 H9          1.7598   -1.3008   -1.1806 H         1 MOL         0.1544
     38 H10         3.7515   -2.1056    0.0213 H         1 MOL         0.1449
     39 H11         0.2325    0.5123    2.4465 H         1 MOL         0.1523
     40 H12         2.0676    0.0523    4.6279 H         1 MOL         0.4865
     41 H13         5.4618   -2.6595    1.7240 H         1 MOL         0.1330
     42 H14         6.0533   -2.1891    4.7098 H         1 MOL         0.1617
     43 H15         8.1262   -3.1187    5.5406 H         1 MOL         0.1438
     44 H16        10.1874   -4.4325    5.1146 H         1 MOL         0.1387
     45 H17        10.6254   -5.3213    2.8270 H         1 MOL         0.1440
     46 H18         8.9483   -4.8486    1.0326 H         1 MOL         0.0235
@<TRIPOS>BOND
     1    1    2 1
     2    2    3 am
     3    3    4 2
     4    3    5 1
     5    5   10 ar
     6    5    6 ar
     7    6    7 ar
     8    7    8 ar
     9    8    9 ar
    10    9   10 ar
    11   10   11 1
    12   11   12 1
    13   12   17 ar
    14   12   13 ar
    15   13   14 ar
    16   14   15 ar
    17   15   20 1
    18   15   16 ar
    19   16   17 ar
    20   16   18 1
    21   18   19 1
    22   19   20 2
    23   20   21 1
    24   21   22 2
    25   22   23 1
    26   23   28 ar
    27   23   24 ar
    28   24   25 ar
    29   25   26 ar
    30   26   27 ar
    31   27   28 ar
    32    1   29 1
    33    1   30 1
    34    1   31 1
    35    2   32 1
    36    6   33 1
    37    7   34 1
    38    8   35 1
    39    9   36 1
    40   13   37 1
    41   14   38 1
    42   17   39 1
    43   18   40 1
    44   21   41 1
    45   22   42 1
    46   24   43 1
    47   25   44 1
    48   26   45 1
    49   27   46 1
@<TRIPOS>MOLECULE
~{N}-methyl-2-[[3-[(~{E})-2-(2-pyridyl)vinyl]-1~{H}-indazol-6-yl]sulfanyl]benzamide
   46    49     0     0     0
SMALL
USER_CHARGES

@<TRIPOS>ATOM
      1 C1          2.6735   -0.4285   -4.2156 C.3       1 MOL         0.0802
      2 N1          2.2512    0.6278   -3.3241 N.am      1 MOL        -0.5743
      3 C2          0.9172    0.8664   -3.0346 C.2       1 MOL         0.6672
      4 O1         -0.0263    0.2256   -3.4903 O.2       1 MOL        -0.5832
      5 C3          0.6514    1.9854   -2.1373 C.ar      1 MOL        -0.1328
      6 C4          1.0741    3.2524   -2.5394 C.ar      1 MOL        -0.0937
      7 C5          0.8440    4.3572   -1.7195 C.ar      1 MOL        -0.1467
      8 C6          0.1913    4.1949   -0.4975 C.ar      1 MOL        -0.0974
      9 C7         -0.2313    2.9278   -0.0955 C.ar      1 MOL        -0.1577
     10 C8         -0.0012    1.8231   -0.9153 C.ar      1 MOL         0.0287
     11 S1         -0.5618    0.2240   -0.3504 S.3       1 MOL        -0.0864
     12 C9          0.8725   -0.3471    0.5479 C.ar      1 MOL        -0.0352
     13 C10         1.8575   -1.0770   -0.1202 C.ar      1 MOL        -0.1080
     14 C11         2.9942   -1.5392    0.5550 C.ar      1 MOL        -0.0801
     15 C12         3.1242   -1.2526    1.9242 C.ar      1 MOL        -0.1729
     16 C13         2.1285   -0.5238    2.5651 C.ar      1 MOL         0.0545
     17 C14         0.9878   -0.0537    1.9107 C.ar      1 MOL        -0.0801
     18 N2          2.5420   -0.4150    3.8654 N.pl3     1 MOL        -0.3860
     19 N3          3.7190   -1.0102    4.1207 N.2       1 MOL        -0.3947
     20 C15         4.0702   -1.5186    2.9374 C.2       1 MOL         0.3773
     21 C16         5.2721   -2.2471    2.7384 C.2       1 MOL        -0.1776
     22 C17         6.2213   -2.5307    3.6913 C.2       1 MOL        -0.1980
     23 C18         7.4594   -3.3037    3.4886 C.ar      1 MOL         0.4459
     24 C19         8.0853   -3.2962    2.2525 C.ar      1 MOL        -0.2368
     25 C20         9.2513   -4.0400    2.1090 C.ar      1 MOL        -0.0928
     26 C21         9.7487   -4.7581    3.1908 C.ar      1 MOL        -0.2453
     27 C22         9.0485   -4.6999    4.3850 C.ar      1 MOL         0.3986
     28 N4          7.9126   -3.9887    4.5624 N.ar      1 MOL        -0.6566
     29 H1          2.7268   -0.0552   -5.2416 H         1 MOL         0.0431
     30 H2          1.9638   -1.2595   -4.1798 H         1 MOL         0.0431
     31 H3          3.6603   -0.7976   -3.9236 H         1 MOL         0.0431
     32 H4          2.9575    1.2162   -2.8943 H         1 MOL         0.3101
     33 H5          1.5844    3.3928   -3.4892 H         1 MOL         0.1410
     34 H6          1.1737    5.3438   -2.0324 H         1 MOL         0.1378
     35 H7          0.0120    5.0552    0.1403 H         1 MOL         0.1360
     36 H8         -0.7381    2.8240    0.8609 H         1 MOL         0.1467
     37 H9          1.7598   -1.3008   -1.1806 H         1 MOL         0.1544
     38 H10         3.7515   -2.1056    0.0213 H         1 MOL         0.1449
     39 H11         0.2325    0.5123    2.4465 H         1 MOL         0.1523
     40 H12         2.0676    0.0523    4.6279 H         1 MOL         0.4865
     41 H13         5.4618   -2.6595    1.7240 H         1 MOL         0.1330
     42 H14         6.0533   -2.1891    4.7098 H         1 MOL         0.1617
     43 H15         7.6912   -2.7330    1.4125 H         1 MOL         0.1438
     44 H16         9.7725   -4.0594    1.1565 H         1 MOL         0.1387
     45 H17        10.6555   -5.3450    3.1013 H         1 MOL         0.1440
     46 H18         9.3937   -5.2432    5.2585 H         1 MOL         0.0235
@<TRIPOS>BOND
     1    1    2 1
     2    2    3 am
     3    3    4 2
     4    3    5 1
     5    5   10 ar
     6    5    6 ar
     7    6    7 ar
     8    7    8 ar
     9    8    9 ar
    10    9   10 ar
    11   10   11 1
    12   11   12 1
    13   12   17 ar
    14   12   13 ar
    15   13   14 ar
    16   14   15 ar
    17   15   20 1
    18   15   16 ar
    19   16   17 ar
    20   16   18 1
    21   18   19 1
    22   19   20 2
    23   20   21 1
    24   21   22 2
    25   22   23 1
    26   23   28 ar
    27   23   24 ar
    28   24   25 ar
    29   25   26 ar
    30   26   27 ar
    31   27   28 ar
    32    1   29 1
    33    1   30 1
    34    1   31 1
    35    2   32 1
    36    6   33 1
    37    7   34 1
    38    8   35 1
    39    9   36 1
    40   13   37 1
    41   14   38 1
    42   17   39 1
    43   18   40 1
    44   21   41 1
    45   22   42 1
    46   24   43 1
    47   25   44 1
    48   26   45 1
    49   27   46 1
@<TRIPOS>MOLECULE
~{N}-methyl-2-[[3-[(~{E})-2-(2-pyridyl)vinyl]-1~{H}-indazol-6-yl]sulfanyl]benzamide
   46    49     0     0     0
SMALL
USER_CHARGES

@<TRIPOS>ATOM
      1 C1          3.8868    2.6031    0.0511 C.3       1 MOL         0.0802
      2 N1          3.1412    1.9075   -0.9731 N.am      1 MOL        -0.5743
      3 C2          1.7876    2.1205   -1.1803 C.2       1 MOL         0.6672
      4 O1          1.0922    2.9010   -0.5355 O.2       1 MOL        -0.5832
      5 C3          1.1725    1.3227   -2.2352 C.ar      1 MOL        -0.1328
      6 C4          1.6738    1.4633   -3.5293 C.ar      1 MOL        -0.0937
      7 C5          1.1226    0.7228   -4.5751 C.ar      1 MOL        -0.1467
      8 C6          0.0701   -0.1581   -4.3268 C.ar      1 MOL        -0.0974
      9 C7         -0.4313   -0.2987   -3.0327 C.ar      1 MOL        -0.1577
     10 C8          0.1199    0.4417   -1.9870 C.ar      1 MOL         0.0287
     11 S1         -0.5618    0.2240   -0.3504 S.3       1 MOL        -0.0864
     12 C9          0.8725   -0.3471    0.5479 C.ar      1 MOL        -0.0352
     13 C10         1.8575   -1.0770   -0.1202 C.ar      1 MOL        -0.1080
     14 C11         2.9942   -1.5392    0.5550 C.ar      1 MOL        -0.0801
     15 C12         3.1242   -1.2526    1.9242 C.ar      1 MOL        -0.1729
     16 C13         2.1285   -0.5238    2.5651 C.ar      1 MOL         0.0545
     17 C14         0.9878   -0.0537    1.9107 C.ar      1 MOL        -0.0801
     18 N2          2.5420   -0.4150    3.8654 N.pl3     1 MOL        -0.3860
     19 N3          3.7190   -1.0102    4.1207 N.2       1 MOL        -0.3947
     20 C15         4.0702   -1.5186    2.9374 C.2       1 MOL         0.3773
     21 C16         5.2721   -2.2471    2.7384 C.2       1 MOL        -0.1776
     22 C17         6.2213   -2.5307    3.6913 C.2       1 MOL        -0.1980
     23 C18         7.4594   -3.3037    3.4886 C.ar      1 MOL         0.4459
     24 C19         8.3270   -3.5111    4.5488 C.ar      1 MOL        -0.2368
     25 C20         9.4824   -4.2469    4.3098 C.ar      1 MOL        -0.0928
     26 C21         9.7311   -4.7458    3.0360 C.ar      1 MOL        -0.2453
     27 C22         8.8006   -4.4832    2.0435 C.ar      1 MOL         0.3986
     28 N4          7.6671   -3.7725    2.2377 N.ar      1 MOL        -0.6566
     29 H1          3.8608    2.0362    0.9853 H         1 MOL         0.0431
     30 H2          3.4549    3.5920    0.2273 H         1 MOL         0.0431
     31 H3          4.9286    2.7256   -0.2573 H         1 MOL         0.0431
     32 H4          3.6265    1.2386   -1.5620 H         1 MOL         0.3101
     33 H5          2.4936    2.1467   -3.7367 H         1 MOL         0.1410
     34 H6          1.5126    0.8327   -5.5829 H         1 MOL         0.1378
     35 H7         -0.3585   -0.7347   -5.1410 H         1 MOL         0.1360
     36 H8         -1.2521   -0.9909   -2.8615 H         1 MOL         0.1467
     37 H9          1.7598   -1.3008   -1.1806 H         1 MOL         0.1544
     38 H10         3.7515   -2.1056    0.0213 H         1 MOL         0.1449
     39 H11         0.2325    0.5123    2.4465 H         1 MOL         0.1523
     40 H12         2.0676    0.0523    4.6279 H         1 MOL         0.4865
     41 H13         5.4618   -2.6595    1.7240 H         1 MOL         0.1330
     42 H14         6.0533   -2.1891    4.7098 H         1 MOL         0.1617
     43 H15         8.1262   -3.1187    5.5406 H         1 MOL         0.1438
     44 H16        10.1874   -4.4325    5.1146 H         1 MOL         0.1387
     45 H17        10.6254   -5.3213    2.8270 H         1 MOL         0.1440
     46 H18         8.9483   -4.8486    1.0326 H         1 MOL         0.0235
@<TRIPOS>BOND
     1    1    2 1
     2    2    3 am
     3    3    4 2
     4    3    5 1
     5    5   10 ar
     6    5    6 ar
     7    6    7 ar
     8    7    8 ar
     9    8    9 ar
    10    9   10 ar
    11   10   11 1
    12   11   12 1
    13   12   17 ar
    14   12   13 ar
    15   13   14 ar
    16   14   15 ar
    17   15   20 1
    18   15   16 ar
    19   16   17 ar
    20   16   18 1
    21   18   19 1
    22   19   20 2
    23   20   21 1
    24   21   22 2
    25   22   23 1
    26   23   28 ar
    27   23   24 ar
    28   24   25 ar
    29   25   26 ar
    30   26   27 ar
    31   27   28 ar
    32    1   29 1
    33    1   30 1
    34    1   31 1
    35    2   32 1
    36    6   33 1
    37    7   34 1
    38    8   35 1
    39    9   36 1
    40   13   37 1
    41   14   38 1
    42   17   39 1
    43   18   40 1
    44   21   41 1
    45   22   42 1
    46   24   43 1
    47   25   44 1
    48   26   45 1
    49   27   46 1
@<TRIPOS>MOLECULE
~{N}-methyl-2-[[3-[(~{E})-2-(2-pyridyl)vinyl]-1~{H}-indazol-6-yl]sulfanyl]benzamide
   46    49     0     0     0
SMALL
USER_CHARGES

@<TRIPOS>ATOM
      1 C1         -4.0061    1.7059    3.0485 C.3       1 MOL         0.0802
      2 N1         -2.8586    2.2752    2.3792 N.am      1 MOL        -0.5743
      3 C2         -2.6410    2.1231    1.0191 C.2       1 MOL         0.6672
      4 O1         -3.3775    1.5057    0.2543 O.2       1 MOL        -0.5832
      5 C3         -1.4239    2.7350    0.4975 C.ar      1 MOL        -0.1328
      6 C4         -1.2774    4.1142    0.6464 C.ar      1 MOL        -0.0937
      7 C5         -0.1322    4.7497    0.1666 C.ar      1 MOL        -0.1467
      8 C6          0.8665    4.0061   -0.4621 C.ar      1 MOL        -0.0974
      9 C7          0.7200    2.6269   -0.6110 C.ar      1 MOL        -0.1577
     10 C8         -0.4253    1.9914   -0.1313 C.ar      1 MOL         0.0287
     11 S1         -0.5618    0.2240   -0.3504 S.3       1 MOL        -0.0864
     12 C9          0.8725   -0.3471    0.5479 C.ar      1 MOL        -0.0352
     13 C10         1.8575   -1.0770   -0.1202 C.ar      1 MOL        -0.1080
     14 C11         2.9942   -1.5392    0.5550 C.ar      1 MOL        -0.0801
     15 C12         3.1242   -1.2526    1.9242 C.ar      1 MOL        -0.1729
     16 C13         2.1285   -0.5238    2.5651 C.ar      1 MOL         0.0545
     17 C14         0.9878   -0.0537    1.9107 C.ar      1 MOL        -0.0801
     18 N2          2.5420   -0.4150    3.8654 N.pl3     1 MOL        -0.3860
     19 N3          3.7190   -1.0102    4.1207 N.2       1 MOL        -0.3947
     20 C15         4.0702   -1.5186    2.9374 C.2       1 MOL         0.3773
     21 C16         5.2721   -2.2471    2.7384 C.2       1 MOL        -0.1776
     22 C17         6.2213   -2.5307    3.6913 C.2       1 MOL        -0.1980
     23 C18         7.4594   -3.3037    3.4886 C.ar      1 MOL         0.4459
     24 C19         8.0853   -3.2962    2.2525 C.ar      1 MOL        -0.2368
     25 C20         9.2513   -4.0400    2.1090 C.ar      1 MOL        -0.0928
     26 C21         9.7487   -4.7581    3.1908 C.ar      1 MOL        -0.2453
     27 C22         9.0485   -4.6999    4.3850 C.ar      1 MOL         0.3986
     28 N4          7.9126   -3.9887    4.5624 N.ar      1 MOL        -0.6566
     29 H1         -3.7724    0.6988    3.4037 H         1 MOL         0.0431
     30 H2         -4.8546    1.6486    2.3613 H         1 MOL         0.0431
     31 H3         -4.2896    2.3241    3.9046 H         1 MOL         0.0431
     32 H4         -2.1877    2.8058    2.9253 H         1 MOL         0.3101
     33 H5         -2.0484    4.7057    1.1341 H         1 MOL         0.1410
     34 H6         -0.0183    5.8238    0.2821 H         1 MOL         0.1378
     35 H7          1.7582    4.5011   -0.8351 H         1 MOL         0.1360
     36 H8          1.5105    2.0666   -1.1043 H         1 MOL         0.1467
     37 H9          1.7598   -1.3008   -1.1806 H         1 MOL         0.1544
     38 H10         3.7515   -2.1056    0.0213 H         1 MOL         0.1449
     39 H11         0.2325    0.5123    2.4465 H         1 MOL         0.1523
     40 H12         2.0676    0.0523    4.6279 H         1 MOL         0.4865
     41 H13         5.4618   -2.6595    1.7240 H         1 MOL         0.1330
     42 H14         6.0533   -2.1891    4.7098 H         1 MOL         0.1617
     43 H15         7.6912   -2.7330    1.4125 H         1 MOL         0.1438
     44 H16         9.7725   -4.0594    1.1565 H         1 MOL         0.1387
     45 H17        10.6555   -5.3450    3.1013 H         1 MOL         0.1440
     46 H18         9.3937   -5.2432    5.2585 H         1 MOL         0.0235
@<TRIPOS>BOND
     1    1    2 1
     2    2    3 am
     3    3    4 2
     4    3    5 1
     5    5   10 ar
     6    5    6 ar
     7    6    7 ar
     8    7    8 ar
     9    8    9 ar
    10    9   10 ar
    11   10   11 1
    12   11   12 1
    13   12   17 ar
    14   12   13 ar
    15   13   14 ar
    16   14   15 ar
    17   15   20 1
    18   15   16 ar
    19   16   17 ar
    20   16   18 1
    21   18   19 1
    22   19   20 2
    23   20   21 1
    24   21   22 2
    25   22   23 1
    26   23   28 ar
    27   23   24 ar
    28   24   25 ar
    29   25   26 ar
    30   26   27 ar
    31   27   28 ar
    32    1   29 1
    33    1   30 1
    34    1   31 1
    35    2   32 1
    36    6   33 1
    37    7   34 1
    38    8   35 1
    39    9   36 1
    40   13   37 1
    41   14   38 1
    42   17   39 1
    43   18   40 1
    44   21   41 1
    45   22   42 1
    46   24   43 1
    47   25   44 1
    48   26   45 1
    49   27   46 1
@<TRIPOS>MOLECULE
~{N}-methyl-2-[[3-[(~{E})-2-(2-pyridyl)vinyl]-1~{H}-indazol-6-yl]sulfanyl]benzamide
   46    49     0     0     0
SMALL
USER_CHARGES

@<TRIPOS>ATOM
      1 C1          0.4251   -0.2793   -5.2885 C.3       1 MOL         0.0802
      2 N1         -0.0755   -1.1063   -4.2141 N.am      1 MOL        -0.5743
      3 C2         -1.0329   -0.6595   -3.3173 C.2       1 MOL         0.6672
      4 O1         -1.5470    0.4558   -3.3358 O.2       1 MOL        -0.5832
      5 C3         -1.4160   -1.6035   -2.2733 C.ar      1 MOL        -0.1328
      6 C4         -1.9615   -2.8238   -2.6721 C.ar      1 MOL        -0.0937
      7 C5         -2.3437   -3.7632   -1.7144 C.ar      1 MOL        -0.1467
      8 C6         -2.1804   -3.4823   -0.3579 C.ar      1 MOL        -0.0974
      9 C7         -1.6350   -2.2619    0.0408 C.ar      1 MOL        -0.1577
     10 C8         -1.2528   -1.3226   -0.9169 C.ar      1 MOL         0.0287
     11 S1         -0.5618    0.2240   -0.3504 S.3       1 MOL        -0.0864
     12 C9          0.8725   -0.3471    0.5479 C.ar      1 MOL        -0.0352
     13 C10         1.8575   -1.0770   -0.1202 C.ar      1 MOL        -0.1080
     14 C11         2.9942   -1.5392    0.5550 C.ar      1 MOL        -0.0801
     15 C12         3.1242   -1.2526    1.9242 C.ar      1 MOL        -0.1729
     16 C13         2.1285   -0.5238    2.5651 C.ar      1 MOL         0.0545
     17 C14         0.9878   -0.0537    1.9107 C.ar      1 MOL        -0.0801
     18 N2          2.5420   -0.4150    3.8654 N.pl3     1 MOL        -0.3860
     19 N3          3.7190   -1.0102    4.1207 N.2       1 MOL        -0.3947
     20 C15         4.0702   -1.5186    2.9374 C.2       1 MOL         0.3773
     21 C16         5.2721   -2.2471    2.7384 C.2       1 MOL        -0.1776
     22 C17         6.2213   -2.5307    3.6913 C.2       1 MOL        -0.1980
     23 C18         7.4594   -3.3037    3.4886 C.ar      1 MOL         0.4459
     24 C19         8.0853   -3.2962    2.2525 C.ar      1 MOL        -0.2368
     25 C20         9.2513   -4.0400    2.1090 C.ar      1 MOL        -0.0928
     26 C21         9.7487   -4.7581    3.1908 C.ar      1 MOL        -0.2453
     27 C22         9.0485   -4.6999    4.3850 C.ar      1 MOL         0.3986
     28 N4          7.9126   -3.9887    4.5624 N.ar      1 MOL        -0.6566
     29 H1          1.2968    0.2876   -4.9514 H         1 MOL         0.0431
     30 H2         -0.3464    0.4229   -5.6159 H         1 MOL         0.0431
     31 H3          0.7170   -0.9009   -6.1393 H         1 MOL         0.0431
     32 H4          0.2874   -2.0485   -4.1126 H         1 MOL         0.3101
     33 H5         -2.0946   -3.0553   -3.7261 H         1 MOL         0.1410
     34 H6         -2.7690   -4.7133   -2.0249 H         1 MOL         0.1378
     35 H7         -2.4776   -4.2139    0.3874 H         1 MOL         0.1360
     36 H8         -1.5167   -2.0635    1.1033 H         1 MOL         0.1467
     37 H9          1.7598   -1.3008   -1.1806 H         1 MOL         0.1544
     38 H10         3.7515   -2.1056    0.0213 H         1 MOL         0.1449
     39 H11         0.2325    0.5123    2.4465 H         1 MOL         0.1523
     40 H12         2.0676    0.0523    4.6279 H         1 MOL         0.4865
     41 H13         5.4618   -2.6595    1.7240 H         1 MOL         0.1330
     42 H14         6.0533   -2.1891    4.7098 H         1 MOL         0.1617
     43 H15         7.6912   -2.7330    1.4125 H         1 MOL         0.1438
     44 H16         9.7725   -4.0594    1.1565 H         1 MOL         0.1387
     45 H17        10.6555   -5.3450    3.1013 H         1 MOL         0.1440
     46 H18         9.3937   -5.2432    5.2585 H         1 MOL         0.0235
@<TRIPOS>BOND
     1    1    2 1
     2    2    3 am
     3    3    4 2
     4    3    5 1
     5    5   10 ar
     6    5    6 ar
     7    6    7 ar
     8    7    8 ar
     9    8    9 ar
    10    9   10 ar
    11   10   11 1
    12   11   12 1
    13   12   17 ar
    14   12   13 ar
    15   13   14 ar
    16   14   15 ar
    17   15   20 1
    18   15   16 ar
    19   16   17 ar
    20   16   18 1
    21   18   19 1
    22   19   20 2
    23   20   21 1
    24   21   22 2
    25   22   23 1
    26   23   28 ar
    27   23   24 ar
    28   24   25 ar
    29   25   26 ar
    30   26   27 ar
    31   27   28 ar
    32    1   29 1
    33    1   30 1
    34    1   31 1
    35    2   32 1
    36    6   33 1
    37    7   34 1
    38    8   35 1
    39    9   36 1
    40   13   37 1
    41   14   38 1
    42   17   39 1
    43   18   40 1
    44   21   41 1
    45   22   42 1
    46   24   43 1
    47   25   44 1
    48   26   45 1
    49   27   46 1
@<TRIPOS>MOLECULE
~{N}-methyl-2-[[3-[(~{E})-2-(2-pyridyl)vinyl]-1~{H}-indazol-6-yl]sulfanyl]benzamide
   46    49     0     0     0
SMALL
USER_CHARGES

@<TRIPOS>ATOM
      1 C1         -4.2719    3.5686    0.4624 C.3       1 MOL         0.0802
      2 N1         -4.0808    2.1413    0.5849 N.am      1 MOL        -0.5743
      3 C2         -2.9437    1.5904    1.1543 C.2       1 MOL         0.6672
      4 O1         -2.0003    2.2352    1.6046 O.2       1 MOL        -0.5832
      5 C3         -2.8883    0.1330    1.1814 C.ar      1 MOL        -0.1328
      6 C4         -3.8954   -0.5406    1.8725 C.ar      1 MOL        -0.0937
      7 C5         -3.8907   -1.9343    1.9286 C.ar      1 MOL        -0.1467
      8 C6         -2.8788   -2.6544    1.2936 C.ar      1 MOL        -0.0974
      9 C7         -1.8717   -1.9807    0.6025 C.ar      1 MOL        -0.1577
     10 C8         -1.8764   -0.5870    0.5464 C.ar      1 MOL         0.0287
     11 S1         -0.5618    0.2240   -0.3504 S.3       1 MOL        -0.0864
     12 C9          0.8725   -0.3471    0.5479 C.ar      1 MOL        -0.0352
     13 C10         1.8575   -1.0770   -0.1202 C.ar      1 MOL        -0.1080
     14 C11         2.9942   -1.5392    0.5550 C.ar      1 MOL        -0.0801
     15 C12         3.1242   -1.2526    1.9242 C.ar      1 MOL        -0.1729
     16 C13         2.1285   -0.5238    2.5651 C.ar      1 MOL         0.0545
     17 C14         0.9878   -0.0537    1.9107 C.ar      1 MOL        -0.0801
     18 N2          2.5420   -0.4150    3.8654 N.pl3     1 MOL        -0.3860
     19 N3          3.7190   -1.0102    4.1207 N.2       1 MOL        -0.3947
     20 C15         4.0702   -1.5186    2.9374 C.2       1 MOL         0.3773
     21 C16         5.2721   -2.2471    2.7384 C.2       1 MOL        -0.1776
     22 C17         6.2213   -2.5307    3.6913 C.2       1 MOL        -0.1980
     23 C18         7.4594   -3.3037    3.4886 C.ar      1 MOL         0.4459
     24 C19         8.0853   -3.2962    2.2525 C.ar      1 MOL        -0.2368
     25 C20         9.2513   -4.0400    2.1090 C.ar      1 MOL        -0.0928
     26 C21         9.7487   -4.7581    3.1908 C.ar      1 MOL        -0.2453
     27 C22         9.0485   -4.6999    4.3850 C.ar      1 MOL         0.3986
     28 N4          7.9126   -3.9887    4.5624 N.ar      1 MOL        -0.6566
     29 H1         -3.8693    3.9211   -0.4908 H         1 MOL         0.0431
     30 H2         -3.7592    4.0898    1.2754 H         1 MOL         0.0431
     31 H3         -5.3368    3.8125    0.5063 H         1 MOL         0.0431
     32 H4         -4.8057    1.5198    0.2415 H         1 MOL         0.3101
     33 H5         -4.6897    0.0085    2.3722 H         1 MOL         0.1410
     34 H6         -4.6746   -2.4590    2.4672 H         1 MOL         0.1378
     35 H7         -2.8756   -3.7394    1.3370 H         1 MOL         0.1360
     36 H8         -1.0926   -2.5616    0.1148 H         1 MOL         0.1467
     37 H9          1.7598   -1.3008   -1.1806 H         1 MOL         0.1544
     38 H10         3.7515   -2.1056    0.0213 H         1 MOL         0.1449
     39 H11         0.2325    0.5123    2.4465 H         1 MOL         0.1523
     40 H12         2.0676    0.0523    4.6279 H         1 MOL         0.4865
     41 H13         5.4618   -2.6595    1.7240 H         1 MOL         0.1330
     42 H14         6.0533   -2.1891    4.7098 H         1 MOL         0.1617
     43 H15         7.6912   -2.7330    1.4125 H         1 MOL         0.1438
     44 H16         9.7725   -4.0594    1.1565 H         1 MOL         0.1387
     45 H17        10.6555   -5.3450    3.1013 H         1 MOL         0.1440
     46 H18         9.3937   -5.2432    5.2585 H         1 MOL         0.0235
@<TRIPOS>BOND
     1    1    2 1
     2    2    3 am
     3    3    4 2
     4    3    5 1
     5    5   10 ar
     6    5    6 ar
     7    6    7 ar
     8    7    8 ar
     9    8    9 ar
    10    9   10 ar
    11   10   11 1
    12   11   12 1
    13   12   17 ar
    14   12   13 ar
    15   13   14 ar
    16   14   15 ar
    17   15   20 1
    18   15   16 ar
    19   16   17 ar
    20   16   18 1
    21   18   19 1
    22   19   20 2
    23   20   21 1
    24   21   22 2
    25   22   23 1
    26   23   28 ar
    27   23   24 ar
    28   24   25 ar
    29   25   26 ar
    30   26   27 ar
    31   27   28 ar
    32    1   29 1
    33    1   30 1
    34    1   31 1
    35    2   32 1
    36    6   33 1
    37    7   34 1
    38    8   35 1
    39    9   36 1
    40   13   37 1
    41   14   38 1
    42   17   39 1
    43   18   40 1
    44   21   41 1
    45   22   42 1
    46   24   43 1
    47   25   44 1
    48   26   45 1
    49   27   46 1
@<TRIPOS>MOLECULE
~{N}-methyl-2-[[3-[(~{E})-2-(2-pyridyl)vinyl]-1~{H}-indazol-6-yl]sulfanyl]benzamide
   46    49     0     0     0
SMALL
USER_CHARGES

@<TRIPOS>ATOM
      1 C1         -2.6973   -0.7929   -4.8245 C.3       1 MOL         0.0802
      2 N1         -1.8100    0.2050   -4.2716 N.am      1 MOL        -0.5743
      3 C2         -0.7379   -0.1238   -3.4574 C.2       1 MOL         0.6672
      4 O1         -0.4321   -1.2660   -3.1252 O.2       1 MOL        -0.5832
      5 C3          0.0483    0.9984   -2.9572 C.ar      1 MOL        -0.1328
      6 C4          0.6608    1.8292   -3.8955 C.ar      1 MOL        -0.0937
      7 C5          1.4232    2.9175   -3.4711 C.ar      1 MOL        -0.1467
      8 C6          1.5731    3.1750   -2.1085 C.ar      1 MOL        -0.0974
      9 C7          0.9607    2.3442   -1.1702 C.ar      1 MOL        -0.1577
     10 C8          0.1983    1.2559   -1.5946 C.ar      1 MOL         0.0287
     11 S1         -0.5618    0.2240   -0.3504 S.3       1 MOL        -0.0864
     12 C9          0.8725   -0.3471    0.5479 C.ar      1 MOL        -0.0352
     13 C10         1.8575   -1.0770   -0.1202 C.ar      1 MOL        -0.1080
     14 C11         2.9942   -1.5392    0.5550 C.ar      1 MOL        -0.0801
     15 C12         3.1242   -1.2526    1.9242 C.ar      1 MOL        -0.1729
     16 C13         2.1285   -0.5238    2.5651 C.ar      1 MOL         0.0545
     17 C14         0.9878   -0.0537    1.9107 C.ar      1 MOL        -0.0801
     18 N2          2.5420   -0.4150    3.8654 N.pl3     1 MOL        -0.3860
     19 N3          3.7190   -1.0102    4.1207 N.2       1 MOL        -0.3947
     20 C15         4.0702   -1.5186    2.9374 C.2       1 MOL         0.3773
     21 C16         5.2721   -2.2471    2.7384 C.2       1 MOL        -0.1776
     22 C17         6.2213   -2.5307    3.6913 C.2       1 MOL        -0.1980
     23 C18         7.4594   -3.3037    3.4886 C.ar      1 MOL         0.4459
     24 C19         8.0853   -3.2962    2.2525 C.ar      1 MOL        -0.2368
     25 C20         9.2513   -4.0400    2.1090 C.ar      1 MOL        -0.0928
     26 C21         9.7487   -4.7581    3.1908 C.ar      1 MOL        -0.2453
     27 C22         9.0485   -4.6999    4.3850 C.ar      1 MOL         0.3986
     28 N4          7.9126   -3.9887    4.5624 N.ar      1 MOL        -0.6566
     29 H1         -3.5316   -0.9736   -4.1417 H         1 MOL         0.0431
     30 H2         -2.1598   -1.7323   -4.9797 H         1 MOL         0.0431
     31 H3         -3.0955   -0.4543   -5.7848 H         1 MOL         0.0431
     32 H4         -1.9782    1.1821   -4.4875 H         1 MOL         0.3101
     33 H5          0.5524    1.6396   -4.9606 H         1 MOL         0.1410
     34 H6          1.9006    3.5642   -4.2018 H         1 MOL         0.1378
     35 H7          2.1663    4.0225   -1.7784 H         1 MOL         0.1360
     36 H8          1.0907    2.5630   -0.1131 H         1 MOL         0.1467
     37 H9          1.7598   -1.3008   -1.1806 H         1 MOL         0.1544
     38 H10         3.7515   -2.1056    0.0213 H         1 MOL         0.1449
     39 H11         0.2325    0.5123    2.4465 H         1 MOL         0.1523
     40 H12         2.0676    0.0523    4.6279 H         1 MOL         0.4865
     41 H13         5.4618   -2.6595    1.7240 H         1 MOL         0.1330
     42 H14         6.0533   -2.1891    4.7098 H         1 MOL         0.1617
     43 H15         7.6912   -2.7330    1.4125 H         1 MOL         0.1438
     44 H16         9.7725   -4.0594    1.1565 H         1 MOL         0.1387
     45 H17        10.6555   -5.3450    3.1013 H         1 MOL         0.1440
     46 H18         9.3937   -5.2432    5.2585 H         1 MOL         0.0235
@<TRIPOS>BOND
     1    1    2 1
     2    2    3 am
     3    3    4 2
     4    3    5 1
     5    5   10 ar
     6    5    6 ar
     7    6    7 ar
     8    7    8 ar
     9    8    9 ar
    10    9   10 ar
    11   10   11 1
    12   11   12 1
    13   12   17 ar
    14   12   13 ar
    15   13   14 ar
    16   14   15 ar
    17   15   20 1
    18   15   16 ar
    19   16   17 ar
    20   16   18 1
    21   18   19 1
    22   19   20 2
    23   20   21 1
    24   21   22 2
    25   22   23 1
    26   23   28 ar
    27   23   24 ar
    28   24   25 ar
    29   25   26 ar
    30   26   27 ar
    31   27   28 ar
    32    1   29 1
    33    1   30 1
    34    1   31 1
    35    2   32 1
    36    6   33 1
    37    7   34 1
    38    8   35 1
    39    9   36 1
    40   13   37 1
    41   14   38 1
    42   17   39 1
    43   18   40 1
    44   21   41 1
    45   22   42 1
    46   24   43 1
    47   25   44 1
    48   26   45 1
    49   27   46 1
@<TRIPOS>MOLECULE
~{N}-methyl-2-[[3-[(~{E})-2-(2-pyridyl)vinyl]-1~{H}-indazol-6-yl]sulfanyl]benzamide
   46    49     0     0     0
SMALL
USER_CHARGES

@<TRIPOS>ATOM
      1 C1          0.7636   -4.5918    0.4636 C.3       1 MOL         0.0802
      2 N1         -0.2651   -3.6812    0.9125 N.am      1 MOL        -0.5743
      3 C2         -0.9593   -2.8571    0.0410 C.2       1 MOL         0.6672
      4 O1         -0.7825   -2.8108   -1.1736 O.2       1 MOL        -0.5832
      5 C3         -1.9488   -1.9760    0.6512 C.ar      1 MOL        -0.1328
      6 C4         -2.9939   -2.5685    1.3601 C.ar      1 MOL        -0.0937
      7 C5         -3.9665   -1.7719    1.9643 C.ar      1 MOL        -0.1467
      8 C6         -3.8941   -0.3828    1.8596 C.ar      1 MOL        -0.0974
      9 C7         -2.8490    0.2096    1.1506 C.ar      1 MOL        -0.1577
     10 C8         -1.8764   -0.5870    0.5464 C.ar      1 MOL         0.0287
     11 S1         -0.5618    0.2240   -0.3504 S.3       1 MOL        -0.0864
     12 C9          0.8725   -0.3471    0.5479 C.ar      1 MOL        -0.0352
     13 C10         1.8575   -1.0770   -0.1202 C.ar      1 MOL        -0.1080
     14 C11         2.9942   -1.5392    0.5550 C.ar      1 MOL        -0.0801
     15 C12         3.1242   -1.2526    1.9242 C.ar      1 MOL        -0.1729
     16 C13         2.1285   -0.5238    2.5651 C.ar      1 MOL         0.0545
     17 C14         0.9878   -0.0537    1.9107 C.ar      1 MOL        -0.0801
     18 N2          2.5420   -0.4150    3.8654 N.pl3     1 MOL        -0.3860
     19 N3          3.7190   -1.0102    4.1207 N.2       1 MOL        -0.3947
     20 C15         4.0702   -1.5186    2.9374 C.2       1 MOL         0.3773
     21 C16         5.2721   -2.2471    2.7384 C.2       1 MOL        -0.1776
     22 C17         6.2213   -2.5307    3.6913 C.2       1 MOL        -0.1980
     23 C18         7.4594   -3.3037    3.4886 C.ar      1 MOL         0.4459
     24 C19         8.0853   -3.2962    2.2525 C.ar      1 MOL        -0.2368
     25 C20         9.2513   -4.0400    2.1090 C.ar      1 MOL        -0.0928
     26 C21         9.7487   -4.7581    3.1908 C.ar      1 MOL        -0.2453
     27 C22         9.0485   -4.6999    4.3850 C.ar      1 MOL         0.3986
     28 N4          7.9126   -3.9887    4.5624 N.ar      1 MOL        -0.6566
     29 H1          1.7373   -4.0952    0.4778 H         1 MOL         0.0431
     30 H2          0.5538   -4.9261   -0.5560 H         1 MOL         0.0431
     31 H3          0.8053   -5.4669    1.1177 H         1 MOL         0.0431
     32 H4         -0.4871   -3.6439    1.9019 H         1 MOL         0.3101
     33 H5         -3.0624   -3.6499    1.4491 H         1 MOL         0.1410
     34 H6         -4.7806   -2.2332    2.5159 H         1 MOL         0.1378
     35 H7         -4.6511    0.2370    2.3305 H         1 MOL         0.1360
     36 H8         -2.8119    1.2940    1.0814 H         1 MOL         0.1467
     37 H9          1.7598   -1.3008   -1.1806 H         1 MOL         0.1544
     38 H10         3.7515   -2.1056    0.0213 H         1 MOL         0.1449
     39 H11         0.2325    0.5123    2.4465 H         1 MOL         0.1523
     40 H12         2.0676    0.0523    4.6279 H         1 MOL         0.4865
     41 H13         5.4618   -2.6595    1.7240 H         1 MOL         0.1330
     42 H14         6.0533   -2.1891    4.7098 H         1 MOL         0.1617
     43 H15         7.6912   -2.7330    1.4125 H         1 MOL         0.1438
     44 H16         9.7725   -4.0594    1.1565 H         1 MOL         0.1387
     45 H17        10.6555   -5.3450    3.1013 H         1 MOL         0.1440
     46 H18         9.3937   -5.2432    5.2585 H         1 MOL         0.0235
@<TRIPOS>BOND
     1    1    2 1
     2    2    3 am
     3    3    4 2
     4    3    5 1
     5    5   10 ar
     6    5    6 ar
     7    6    7 ar
     8    7    8 ar
     9    8    9 ar
    10    9   10 ar
    11   10   11 1
    12   11   12 1
    13   12   17 ar
    14   12   13 ar
    15   13   14 ar
    16   14   15 ar
    17   15   20 1
    18   15   16 ar
    19   16   17 ar
    20   16   18 1
    21   18   19 1
    22   19   20 2
    23   20   21 1
    24   21   22 2
    25   22   23 1
    26   23   28 ar
    27   23   24 ar
    28   24   25 ar
    29   25   26 ar
    30   26   27 ar
    31   27   28 ar
    32    1   29 1
    33    1   30 1
    34    1   31 1
    35    2   32 1
    36    6   33 1
    37    7   34 1
    38    8   35 1
    39    9   36 1
    40   13   37 1
    41   14   38 1
    42   17   39 1
    43   18   40 1
    44   21   41 1
    45   22   42 1
    46   24   43 1
    47   25   44 1
    48   26   45 1
    49   27   46 1
@<TRIPOS>MOLECULE
~{N}-methyl-2-[[3-[(~{E})-2-(2-pyridyl)vinyl]-1~{H}-indazol-6-yl]sulfanyl]benzamide
   46    49     0     0     0
SMALL
USER_CHARGES

@<TRIPOS>ATOM
      1 C1          0.9276    4.5469    1.8189 C.3       1 MOL         0.0802
      2 N1          1.1183    3.8693    0.5566 N.am      1 MOL        -0.5743
      3 C2          0.0716    3.2832   -0.1371 C.2       1 MOL         0.6672
      4 O1         -1.0995    3.2748    0.2330 O.2       1 MOL        -0.5832
      5 C3          0.4299    2.6150   -1.3833 C.ar      1 MOL        -0.1328
      6 C4          1.0250    3.3848   -2.3829 C.ar      1 MOL        -0.0937
      7 C5          1.3885    2.7952   -3.5937 C.ar      1 MOL        -0.1467
      8 C6          1.1570    1.4360   -3.8049 C.ar      1 MOL        -0.0974
      9 C7          0.5619    0.6664   -2.8053 C.ar      1 MOL        -0.1577
     10 C8          0.1983    1.2559   -1.5946 C.ar      1 MOL         0.0287
     11 S1         -0.5618    0.2240   -0.3504 S.3       1 MOL        -0.0864
     12 C9          0.8725   -0.3471    0.5479 C.ar      1 MOL        -0.0352
     13 C10         1.8575   -1.0770   -0.1202 C.ar      1 MOL        -0.1080
     14 C11         2.9942   -1.5392    0.5550 C.ar      1 MOL        -0.0801
     15 C12         3.1242   -1.2526    1.9242 C.ar      1 MOL        -0.1729
     16 C13         2.1285   -0.5238    2.5651 C.ar      1 MOL         0.0545
     17 C14         0.9878   -0.0537    1.9107 C.ar      1 MOL        -0.0801
     18 N2          2.5420   -0.4150    3.8654 N.pl3     1 MOL        -0.3860
     19 N3          3.7190   -1.0102    4.1207 N.2       1 MOL        -0.3947
     20 C15         4.0702   -1.5186    2.9374 C.2       1 MOL         0.3773
     21 C16         5.2721   -2.2471    2.7384 C.2       1 MOL        -0.1776
     22 C17         6.2213   -2.5307    3.6913 C.2       1 MOL        -0.1980
     23 C18         7.4594   -3.3037    3.4886 C.ar      1 MOL         0.4459
     24 C19         7.5007   -4.3063    2.5332 C.ar      1 MOL        -0.2368
     25 C20         8.6909   -5.0081    2.3775 C.ar      1 MOL        -0.0928
     26 C21         9.7878   -4.6902    3.1706 C.ar      1 MOL        -0.2453
     27 C22         9.6442   -3.6702    4.0973 C.ar      1 MOL         0.3986
     28 N4          8.5042   -2.9662    4.2774 N.ar      1 MOL        -0.6566
     29 H1          1.0419    3.8407    2.6454 H         1 MOL         0.0431
     30 H2         -0.0733    4.9844    1.8657 H         1 MOL         0.0431
     31 H3          1.6650    5.3458    1.9342 H         1 MOL         0.0431
     32 H4          2.0528    3.8211    0.1640 H         1 MOL         0.3101
     33 H5          1.2106    4.4453   -2.2315 H         1 MOL         0.1410
     34 H6          1.8514    3.3947   -4.3724 H         1 MOL         0.1378
     35 H7          1.4405    0.9773   -4.7474 H         1 MOL         0.1360
     36 H8          0.3904   -0.3912   -2.9910 H         1 MOL         0.1467
     37 H9          1.7598   -1.3008   -1.1806 H         1 MOL         0.1544
     38 H10         3.7515   -2.1056    0.0213 H         1 MOL         0.1449
     39 H11         0.2325    0.5123    2.4465 H         1 MOL         0.1523
     40 H12         2.0676    0.0523    4.6279 H         1 MOL         0.4865
     41 H13         5.4618   -2.6595    1.7240 H         1 MOL         0.1330
     42 H14         6.0533   -2.1891    4.7098 H         1 MOL         0.1617
     43 H15         6.6404   -4.5489    1.9176 H         1 MOL         0.1438
     44 H16         8.7644   -5.8007    1.6388 H         1 MOL         0.1387
     45 H17        10.7251   -5.2245    3.0666 H         1 MOL         0.1440
     46 H18        10.4694   -3.3844    4.7413 H         1 MOL         0.0235
@<TRIPOS>BOND
     1    1    2 1
     2    2    3 am
     3    3    4 2
     4    3    5 1
     5    5   10 ar
     6    5    6 ar
     7    6    7 ar
     8    7    8 ar
     9    8    9 ar
    10    9   10 ar
    11   10   11 1
    12   11   12 1
    13   12   17 ar
    14   12   13 ar
    15   13   14 ar
    16   14   15 ar
    17   15   20 1
    18   15   16 ar
    19   16   17 ar
    20   16   18 1
    21   18   19 1
    22   19   20 2
    23   20   21 1
    24   21   22 2
    25   22   23 1
    26   23   28 ar
    27   23   24 ar
    28   24   25 ar
    29   25   26 ar
    30   26   27 ar
    31   27   28 ar
    32    1   29 1
    33    1   30 1
    34    1   31 1
    35    2   32 1
    36    6   33 1
    37    7   34 1
    38    8   35 1
    39    9   36 1
    40   13   37 1
    41   14   38 1
    42   17   39 1
    43   18   40 1
    44   21   41 1
    45   22   42 1
    46   24   43 1
    47   25   44 1
    48   26   45 1
    49   27   46 1
@<TRIPOS>MOLECULE
~{N}-methyl-2-[[3-[(~{E})-2-(2-pyridyl)vinyl]-1~{H}-indazol-6-yl]sulfanyl]benzamide
   46    49     0     0     0
SMALL
USER_CHARGES

@<TRIPOS>ATOM
      1 C1          0.1787    3.4823    2.2562 C.3       1 MOL         0.0802
      2 N1          0.0972    3.0570    0.8774 N.am      1 MOL        -0.5743
      3 C2          1.2214    2.7535    0.1261 C.2       1 MOL         0.6672
      4 O1          2.3776    2.8106    0.5367 O.2       1 MOL        -0.5832
      5 C3          0.9752    2.3643   -1.2581 C.ar      1 MOL        -0.1328
      6 C4          1.5494    3.1443   -2.2619 C.ar      1 MOL        -0.0937
      7 C5          1.3467    2.8157   -3.6023 C.ar      1 MOL        -0.1467
      8 C6          0.5698    1.7072   -3.9388 C.ar      1 MOL        -0.0974
      9 C7         -0.0044    0.9273   -2.9349 C.ar      1 MOL        -0.1577
     10 C8          0.1983    1.2559   -1.5946 C.ar      1 MOL         0.0287
     11 S1         -0.5618    0.2240   -0.3504 S.3       1 MOL        -0.0864
     12 C9          0.8725   -0.3471    0.5479 C.ar      1 MOL        -0.0352
     13 C10         1.8575   -1.0770   -0.1202 C.ar      1 MOL        -0.1080
     14 C11         2.9942   -1.5392    0.5550 C.ar      1 MOL        -0.0801
     15 C12         3.1242   -1.2526    1.9242 C.ar      1 MOL        -0.1729
     16 C13         2.1285   -0.5238    2.5651 C.ar      1 MOL         0.0545
     17 C14         0.9878   -0.0537    1.9107 C.ar      1 MOL        -0.0801
     18 N2          2.5420   -0.4150    3.8654 N.pl3     1 MOL        -0.3860
     19 N3          3.7190   -1.0102    4.1207 N.2       1 MOL        -0.3947
     20 C15         4.0702   -1.5186    2.9374 C.2       1 MOL         0.3773
     21 C16         5.2721   -2.2471    2.7384 C.2       1 MOL        -0.1776
     22 C17         5.9223   -3.0188    3.6718 C.2       1 MOL        -0.1980
     23 C18         7.1595   -3.7904    3.4591 C.ar      1 MOL         0.4459
     24 C19         7.3824   -4.9530    4.1792 C.ar      1 MOL        -0.2368
     25 C20         8.5637   -5.6477    3.9441 C.ar      1 MOL        -0.0928
     26 C21         9.4729   -5.1654    3.0092 C.ar      1 MOL        -0.2453
     27 C22         9.1564   -3.9935    2.3413 C.ar      1 MOL         0.3986
     28 N4          8.0190   -3.2910    2.5429 N.ar      1 MOL        -0.6566
     29 H1          0.2600    4.5711    2.3093 H         1 MOL         0.0431
     30 H2          1.0556    3.0401    2.7369 H         1 MOL         0.0431
     31 H3         -0.7154    3.1691    2.8019 H         1 MOL         0.0431
     32 H4         -0.8167    2.9777    0.4435 H         1 MOL         0.3101
     33 H5          2.1567    4.0112   -2.0134 H         1 MOL         0.1410
     34 H6          1.7933    3.4234   -4.3841 H         1 MOL         0.1378
     35 H7          0.4125    1.4514   -4.9823 H         1 MOL         0.1360
     36 H8         -0.6064    0.0677   -3.2195 H         1 MOL         0.1467
     37 H9          1.7598   -1.3008   -1.1806 H         1 MOL         0.1544
     38 H10         3.7515   -2.1056    0.0213 H         1 MOL         0.1449
     39 H11         0.2325    0.5123    2.4465 H         1 MOL         0.1523
     40 H12         2.0676    0.0523    4.6279 H         1 MOL         0.4865
     41 H13         5.7261   -2.2235    1.7243 H         1 MOL         0.1330
     42 H14         5.4872   -3.1107    4.6640 H         1 MOL         0.1617
     43 H15         6.6679   -5.3235    4.9074 H         1 MOL         0.1438
     44 H16         8.7753   -6.5638    4.4873 H         1 MOL         0.1387
     45 H17        10.4002   -5.6903    2.8105 H         1 MOL         0.1440
     46 H18         9.8326   -3.5745    1.6034 H         1 MOL         0.0235
@<TRIPOS>BOND
     1    1    2 1
     2    2    3 am
     3    3    4 2
     4    3    5 1
     5    5   10 ar
     6    5    6 ar
     7    6    7 ar
     8    7    8 ar
     9    8    9 ar
    10    9   10 ar
    11   10   11 1
    12   11   12 1
    13   12   17 ar
    14   12   13 ar
    15   13   14 ar
    16   14   15 ar
    17   15   20 1
    18   15   16 ar
    19   16   17 ar
    20   16   18 1
    21   18   19 1
    22   19   20 2
    23   20   21 1
    24   21   22 2
    25   22   23 1
    26   23   28 ar
    27   23   24 ar
    28   24   25 ar
    29   25   26 ar
    30   26   27 ar
    31   27   28 ar
    32    1   29 1
    33    1   30 1
    34    1   31 1
    35    2   32 1
    36    6   33 1
    37    7   34 1
    38    8   35 1
    39    9   36 1
    40   13   37 1
    41   14   38 1
    42   17   39 1
    43   18   40 1
    44   21   41 1
    45   22   42 1
    46   24   43 1
    47   25   44 1
    48   26   45 1
    49   27   46 1
@<TRIPOS>MOLECULE
~{N}-methyl-2-[[3-[(~{E})-2-(2-pyridyl)vinyl]-1~{H}-indazol-6-yl]sulfanyl]benzamide
   46    49     0     0     0
SMALL
USER_CHARGES

@<TRIPOS>ATOM
      1 C1          0.0850   -3.5867   -2.0882 C.3       1 MOL         0.0802
      2 N1         -0.8339   -2.7630   -1.3359 N.am      1 MOL        -0.5743
      3 C2         -0.9593   -2.8571    0.0410 C.2       1 MOL         0.6672
      4 O1         -0.3221   -3.6284    0.7535 O.2       1 MOL        -0.5832
      5 C3         -1.9488   -1.9760    0.6512 C.ar      1 MOL        -0.1328
      6 C4         -2.9939   -2.5685    1.3601 C.ar      1 MOL        -0.0937
      7 C5         -3.9665   -1.7719    1.9643 C.ar      1 MOL        -0.1467
      8 C6         -3.8941   -0.3828    1.8596 C.ar      1 MOL        -0.0974
      9 C7         -2.8490    0.2096    1.1506 C.ar      1 MOL        -0.1577
     10 C8         -1.8764   -0.5870    0.5464 C.ar      1 MOL         0.0287
     11 S1         -0.5618    0.2240   -0.3504 S.3       1 MOL        -0.0864
     12 C9          0.8725   -0.3471    0.5479 C.ar      1 MOL        -0.0352
     13 C10         1.8575   -1.0770   -0.1202 C.ar      1 MOL        -0.1080
     14 C11         2.9942   -1.5392    0.5550 C.ar      1 MOL        -0.0801
     15 C12         3.1242   -1.2526    1.9242 C.ar      1 MOL        -0.1729
     16 C13         2.1285   -0.5238    2.5651 C.ar      1 MOL         0.0545
     17 C14         0.9878   -0.0537    1.9107 C.ar      1 MOL        -0.0801
     18 N2          2.5420   -0.4150    3.8654 N.pl3     1 MOL        -0.3860
     19 N3          3.7190   -1.0102    4.1207 N.2       1 MOL        -0.3947
     20 C15         4.0702   -1.5186    2.9374 C.2       1 MOL         0.3773
     21 C16         5.2721   -2.2471    2.7384 C.2       1 MOL        -0.1776
     22 C17         5.9223   -3.0188    3.6718 C.2       1 MOL        -0.1980
     23 C18         7.1595   -3.7904    3.4591 C.ar      1 MOL         0.4459
     24 C19         7.3824   -4.9530    4.1792 C.ar      1 MOL        -0.2368
     25 C20         8.5637   -5.6477    3.9441 C.ar      1 MOL        -0.0928
     26 C21         9.4729   -5.1654    3.0092 C.ar      1 MOL        -0.2453
     27 C22         9.1564   -3.9935    2.3413 C.ar      1 MOL         0.3986
     28 N4          8.0190   -3.2910    2.5429 N.ar      1 MOL        -0.6566
     29 H1         -0.4077   -4.5117   -2.3989 H         1 MOL         0.0431
     30 H2          0.9543   -3.8398   -1.4752 H         1 MOL         0.0431
     31 H3          0.4276   -3.0539   -2.9793 H         1 MOL         0.0431
     32 H4         -1.4084   -2.0910   -1.8342 H         1 MOL         0.3101
     33 H5         -3.0624   -3.6499    1.4491 H         1 MOL         0.1410
     34 H6         -4.7806   -2.2332    2.5159 H         1 MOL         0.1378
     35 H7         -4.6511    0.2370    2.3305 H         1 MOL         0.1360
     36 H8         -2.8119    1.2940    1.0814 H         1 MOL         0.1467
     37 H9          1.7598   -1.3008   -1.1806 H         1 MOL         0.1544
     38 H10         3.7515   -2.1056    0.0213 H         1 MOL         0.1449
     39 H11         0.2325    0.5123    2.4465 H         1 MOL         0.1523
     40 H12         2.0676    0.0523    4.6279 H         1 MOL         0.4865
     41 H13         5.7261   -2.2235    1.7243 H         1 MOL         0.1330
     42 H14         5.4872   -3.1107    4.6640 H         1 MOL         0.1617
     43 H15         6.6679   -5.3235    4.9074 H         1 MOL         0.1438
     44 H16         8.7753   -6.5638    4.4873 H         1 MOL         0.1387
     45 H17        10.4002   -5.6903    2.8105 H         1 MOL         0.1440
     46 H18         9.8326   -3.5745    1.6034 H         1 MOL         0.0235
@<TRIPOS>BOND
     1    1    2 1
     2    2    3 am
     3    3    4 2
     4    3    5 1
     5    5   10 ar
     6    5    6 ar
     7    6    7 ar
     8    7    8 ar
     9    8    9 ar
    10    9   10 ar
    11   10   11 1
    12   11   12 1
    13   12   17 ar
    14   12   13 ar
    15   13   14 ar
    16   14   15 ar
    17   15   20 1
    18   15   16 ar
    19   16   17 ar
    20   16   18 1
    21   18   19 1
    22   19   20 2
    23   20   21 1
    24   21   22 2
    25   22   23 1
    26   23   28 ar
    27   23   24 ar
    28   24   25 ar
    29   25   26 ar
    30   26   27 ar
    31   27   28 ar
    32    1   29 1
    33    1   30 1
    34    1   31 1
    35    2   32 1
    36    6   33 1
    37    7   34 1
    38    8   35 1
    39    9   36 1
    40   13   37 1
    41   14   38 1
    42   17   39 1
    43   18   40 1
    44   21   41 1
    45   22   42 1
    46   24   43 1
    47   25   44 1
    48   26   45 1
    49   27   46 1
@<TRIPOS>MOLECULE
~{N}-methyl-2-[[3-[(~{E})-2-(2-pyridyl)vinyl]-1~{H}-indazol-6-yl]sulfanyl]benzamide
   46    49     0     0     0
SMALL
USER_CHARGES

@<TRIPOS>ATOM
      1 C1         -1.3906   -2.6223   -3.3789 C.3       1 MOL         0.0802
      2 N1         -1.8758   -1.9964   -2.1699 N.am      1 MOL        -0.5743
      3 C2         -1.7769   -2.6035   -0.9281 C.2       1 MOL         0.6672
      4 O1         -1.2805   -3.7081   -0.7234 O.2       1 MOL        -0.5832
      5 C3         -2.3367   -1.8551    0.1920 C.ar      1 MOL        -0.1328
      6 C4         -3.3670   -2.4515    0.9190 C.ar      1 MOL        -0.0937
      7 C5         -3.9369   -1.7798    2.0004 C.ar      1 MOL        -0.1467
      8 C6         -3.4767   -0.5117    2.3549 C.ar      1 MOL        -0.0974
      9 C7         -2.4464    0.0847    1.6279 C.ar      1 MOL        -0.1577
     10 C8         -1.8764   -0.5870    0.5464 C.ar      1 MOL         0.0287
     11 S1         -0.5618    0.2240   -0.3504 S.3       1 MOL        -0.0864
     12 C9          0.8725   -0.3471    0.5479 C.ar      1 MOL        -0.0352
     13 C10         1.8575   -1.0770   -0.1202 C.ar      1 MOL        -0.1080
     14 C11         2.9942   -1.5392    0.5550 C.ar      1 MOL        -0.0801
     15 C12         3.1242   -1.2526    1.9242 C.ar      1 MOL        -0.1729
     16 C13         2.1285   -0.5238    2.5651 C.ar      1 MOL         0.0545
     17 C14         0.9878   -0.0537    1.9107 C.ar      1 MOL        -0.0801
     18 N2          2.5420   -0.4150    3.8654 N.pl3     1 MOL        -0.3860
     19 N3          3.7190   -1.0102    4.1207 N.2       1 MOL        -0.3947
     20 C15         4.0702   -1.5186    2.9374 C.2       1 MOL         0.3773
     21 C16         5.2721   -2.2471    2.7384 C.2       1 MOL        -0.1776
     22 C17         6.2213   -2.5307    3.6913 C.2       1 MOL        -0.1980
     23 C18         7.4594   -3.3037    3.4886 C.ar      1 MOL         0.4459
     24 C19         8.0853   -3.2962    2.2525 C.ar      1 MOL        -0.2368
     25 C20         9.2513   -4.0400    2.1090 C.ar      1 MOL        -0.0928
     26 C21         9.7487   -4.7581    3.1908 C.ar      1 MOL        -0.2453
     27 C22         9.0485   -4.6999    4.3850 C.ar      1 MOL         0.3986
     28 N4          7.9126   -3.9887    4.5624 N.ar      1 MOL        -0.6566
     29 H1         -2.1818   -3.2234   -3.8344 H         1 MOL         0.0431
     30 H2         -0.5406   -3.2721   -3.1532 H         1 MOL         0.0431
     31 H3         -1.0695   -1.8617   -4.0956 H         1 MOL         0.0431
     32 H4         -2.3047   -1.0788   -2.2327 H         1 MOL         0.3101
     33 H5         -3.7354   -3.4393    0.6530 H         1 MOL         0.1410
     34 H6         -4.7397   -2.2440    2.5662 H         1 MOL         0.1378
     35 H7         -3.9203    0.0108    3.1972 H         1 MOL         0.1360
     36 H8         -2.1030    1.0737    1.9213 H         1 MOL         0.1467
     37 H9          1.7598   -1.3008   -1.1806 H         1 MOL         0.1544
     38 H10         3.7515   -2.1056    0.0213 H         1 MOL         0.1449
     39 H11         0.2325    0.5123    2.4465 H         1 MOL         0.1523
     40 H12         2.0676    0.0523    4.6279 H         1 MOL         0.4865
     41 H13         5.4618   -2.6595    1.7240 H         1 MOL         0.1330
     42 H14         6.0533   -2.1891    4.7098 H         1 MOL         0.1617
     43 H15         7.6912   -2.7330    1.4125 H         1 MOL         0.1438
     44 H16         9.7725   -4.0594    1.1565 H         1 MOL         0.1387
     45 H17        10.6555   -5.3450    3.1013 H         1 MOL         0.1440
     46 H18         9.3937   -5.2432    5.2585 H         1 MOL         0.0235
@<TRIPOS>BOND
     1    1    2 1
     2    2    3 am
     3    3    4 2
     4    3    5 1
     5    5   10 ar
     6    5    6 ar
     7    6    7 ar
     8    7    8 ar
     9    8    9 ar
    10    9   10 ar
    11   10   11 1
    12   11   12 1
    13   12   17 ar
    14   12   13 ar
    15   13   14 ar
    16   14   15 ar
    17   15   20 1
    18   15   16 ar
    19   16   17 ar
    20   16   18 1
    21   18   19 1
    22   19   20 2
    23   20   21 1
    24   21   22 2
    25   22   23 1
    26   23   28 ar
    27   23   24 ar
    28   24   25 ar
    29   25   26 ar
    30   26   27 ar
    31   27   28 ar
    32    1   29 1
    33    1   30 1
    34    1   31 1
    35    2   32 1
    36    6   33 1
    37    7   34 1
    38    8   35 1
    39    9   36 1
    40   13   37 1
    41   14   38 1
    42   17   39 1
    43   18   40 1
    44   21   41 1
    45   22   42 1
    46   24   43 1
    47   25   44 1
    48   26   45 1
    49   27   46 1
@<TRIPOS>MOLECULE
~{N}-methyl-2-[[3-[(~{E})-2-(2-pyridyl)vinyl]-1~{H}-indazol-6-yl]sulfanyl]benzamide
   46    49     0     0     0
SMALL
USER_CHARGES

@<TRIPOS>ATOM
      1 C1          4.2484    1.6289   -1.1991 C.3       1 MOL         0.0802
      2 N1          3.0399    2.1895   -0.6389 N.am      1 MOL        -0.5743
      3 C2          1.8060    2.0617   -1.2566 C.2       1 MOL         0.6672
      4 O1          1.6087    1.4751   -2.3175 O.2       1 MOL        -0.5832
      5 C3          0.6860    2.7055   -0.5793 C.ar      1 MOL        -0.1328
      6 C4          0.7526    4.0854   -0.3861 C.ar      1 MOL        -0.0937
      7 C5         -0.2921    4.7511    0.2550 C.ar      1 MOL        -0.1467
      8 C6         -1.4034    4.0370    0.7030 C.ar      1 MOL        -0.0974
      9 C7         -1.4700    2.6571    0.5098 C.ar      1 MOL        -0.1577
     10 C8         -0.4253    1.9914   -0.1313 C.ar      1 MOL         0.0287
     11 S1         -0.5618    0.2240   -0.3504 S.3       1 MOL        -0.0864
     12 C9          0.8725   -0.3471    0.5479 C.ar      1 MOL        -0.0352
     13 C10         1.8575   -1.0770   -0.1202 C.ar      1 MOL        -0.1080
     14 C11         2.9942   -1.5392    0.5550 C.ar      1 MOL        -0.0801
     15 C12         3.1242   -1.2526    1.9242 C.ar      1 MOL        -0.1729
     16 C13         2.1285   -0.5238    2.5651 C.ar      1 MOL         0.0545
     17 C14         0.9878   -0.0537    1.9107 C.ar      1 MOL        -0.0801
     18 N2          2.5420   -0.4150    3.8654 N.pl3     1 MOL        -0.3860
     19 N3          3.7190   -1.0102    4.1207 N.2       1 MOL        -0.3947
     20 C15         4.0702   -1.5186    2.9374 C.2       1 MOL         0.3773
     21 C16         5.2721   -2.2471    2.7384 C.2       1 MOL        -0.1776
     22 C17         6.0033   -2.3127    1.5763 C.2       1 MOL        -0.1980
     23 C18         7.2613   -3.0535    1.3759 C.ar      1 MOL         0.4459
     24 C19         7.8906   -3.0273    0.1417 C.ar      1 MOL        -0.2368
     25 C20         9.0756   -3.7409    0.0003 C.ar      1 MOL        -0.0928
     26 C21         9.5877   -4.4486    1.0820 C.ar      1 MOL        -0.2453
     27 C22         8.8825   -4.4110    2.2741 C.ar      1 MOL         0.3986
     28 N4          7.7284   -3.7292    2.4495 N.ar      1 MOL        -0.6566
     29 H1          4.7294    2.3560   -1.8585 H         1 MOL         0.0431
     30 H2          4.0157    0.7301   -1.7766 H         1 MOL         0.0431
     31 H3          4.9464    1.3617   -0.4012 H         1 MOL         0.0431
     32 H4          3.0970    2.6953    0.2390 H         1 MOL         0.3101
     33 H5          1.6132    4.6539   -0.7299 H         1 MOL         0.1410
     34 H6         -0.2400    5.8256    0.4061 H         1 MOL         0.1378
     35 H7         -2.2168    4.5556    1.2017 H         1 MOL         0.1360
     36 H8         -2.3453    2.1201    0.8670 H         1 MOL         0.1467
     37 H9          1.7598   -1.3008   -1.1806 H         1 MOL         0.1544
     38 H10         3.7515   -2.1056    0.0213 H         1 MOL         0.1449
     39 H11         0.2325    0.5123    2.4465 H         1 MOL         0.1523
     40 H12         2.0676    0.0523    4.6279 H         1 MOL         0.4865
     41 H13         5.6893   -2.7988    3.6082 H         1 MOL         0.1330
     42 H14         5.6588   -1.7483    0.7131 H         1 MOL         0.1617
     43 H15         7.4849   -2.4724   -0.6982 H         1 MOL         0.1438
     44 H16         9.6000   -3.7448   -0.9506 H         1 MOL         0.1387
     45 H17        10.5094   -5.0121    0.9942 H         1 MOL         0.1440
     46 H18         9.2386   -4.9474    3.1475 H         1 MOL         0.0235
@<TRIPOS>BOND
     1    1    2 1
     2    2    3 am
     3    3    4 2
     4    3    5 1
     5    5   10 ar
     6    5    6 ar
     7    6    7 ar
     8    7    8 ar
     9    8    9 ar
    10    9   10 ar
    11   10   11 1
    12   11   12 1
    13   12   17 ar
    14   12   13 ar
    15   13   14 ar
    16   14   15 ar
    17   15   20 1
    18   15   16 ar
    19   16   17 ar
    20   16   18 1
    21   18   19 1
    22   19   20 2
    23   20   21 1
    24   21   22 2
    25   22   23 1
    26   23   28 ar
    27   23   24 ar
    28   24   25 ar
    29   25   26 ar
    30   26   27 ar
    31   27   28 ar
    32    1   29 1
    33    1   30 1
    34    1   31 1
    35    2   32 1
    36    6   33 1
    37    7   34 1
    38    8   35 1
    39    9   36 1
    40   13   37 1
    41   14   38 1
    42   17   39 1
    43   18   40 1
    44   21   41 1
    45   22   42 1
    46   24   43 1
    47   25   44 1
    48   26   45 1
    49   27   46 1
@<TRIPOS>MOLECULE
~{N}-methyl-2-[[3-[(~{E})-2-(2-pyridyl)vinyl]-1~{H}-indazol-6-yl]sulfanyl]benzamide
   46    49     0     0     0
SMALL
USER_CHARGES

@<TRIPOS>ATOM
      1 C1         -0.5755   -3.0907    3.5024 C.3       1 MOL         0.0802
      2 N1         -0.7609   -3.0963    2.0691 N.am      1 MOL        -0.5743
      3 C2         -1.5516   -2.1623    1.4188 C.2       1 MOL         0.6672
      4 O1         -2.1644   -1.2531    1.9723 O.2       1 MOL        -0.5832
      5 C3         -1.6595   -2.3172   -0.0276 C.ar      1 MOL        -0.1328
      6 C4         -2.1927   -3.5113   -0.5130 C.ar      1 MOL        -0.0937
      7 C5         -2.3193   -3.7106   -1.8878 C.ar      1 MOL        -0.1467
      8 C6         -1.9126   -2.7159   -2.7771 C.ar      1 MOL        -0.0974
      9 C7         -1.3794   -1.5219   -2.2916 C.ar      1 MOL        -0.1577
     10 C8         -1.2528   -1.3226   -0.9169 C.ar      1 MOL         0.0287
     11 S1         -0.5618    0.2240   -0.3504 S.3       1 MOL        -0.0864
     12 C9          0.8725   -0.3471    0.5479 C.ar      1 MOL        -0.0352
     13 C10         1.8575   -1.0770   -0.1202 C.ar      1 MOL        -0.1080
     14 C11         2.9942   -1.5392    0.5550 C.ar      1 MOL        -0.0801
     15 C12         3.1242   -1.2526    1.9242 C.ar      1 MOL        -0.1729
     16 C13         2.1285   -0.5238    2.5651 C.ar      1 MOL         0.0545
     17 C14         0.9878   -0.0537    1.9107 C.ar      1 MOL        -0.0801
     18 N2          2.5420   -0.4150    3.8654 N.pl3     1 MOL        -0.3860
     19 N3          3.7190   -1.0102    4.1207 N.2       1 MOL        -0.3947
     20 C15         4.0702   -1.5186    2.9374 C.2       1 MOL         0.3773
     21 C16         5.2721   -2.2471    2.7384 C.2       1 MOL        -0.1776
     22 C17         6.0033   -2.3127    1.5763 C.2       1 MOL        -0.1980
     23 C18         7.2613   -3.0535    1.3759 C.ar      1 MOL         0.4459
     24 C19         7.8906   -3.0273    0.1417 C.ar      1 MOL        -0.2368
     25 C20         9.0756   -3.7409    0.0003 C.ar      1 MOL        -0.0928
     26 C21         9.5877   -4.4486    1.0820 C.ar      1 MOL        -0.2453
     27 C22         8.8825   -4.4110    2.2741 C.ar      1 MOL         0.3986
     28 N4          7.7284   -3.7292    2.4495 N.ar      1 MOL        -0.6566
     29 H1         -1.3422   -3.7041    3.9829 H         1 MOL         0.0431
     30 H2         -0.6478   -2.0704    3.8889 H         1 MOL         0.0431
     31 H3          0.4084   -3.4932    3.7579 H         1 MOL         0.0431
     32 H4         -0.2950   -3.8103    1.5188 H         1 MOL         0.3101
     33 H5         -2.5131   -4.2949    0.1691 H         1 MOL         0.1410
     34 H6         -2.7340   -4.6407   -2.2659 H         1 MOL         0.1378
     35 H7         -2.0117   -2.8712   -3.8472 H         1 MOL         0.1360
     36 H8         -1.0686   -0.7600   -3.0024 H         1 MOL         0.1467
     37 H9          1.7598   -1.3008   -1.1806 H         1 MOL         0.1544
     38 H10         3.7515   -2.1056    0.0213 H         1 MOL         0.1449
     39 H11         0.2325    0.5123    2.4465 H         1 MOL         0.1523
     40 H12         2.0676    0.0523    4.6279 H         1 MOL         0.4865
     41 H13         5.6893   -2.7988    3.6082 H         1 MOL         0.1330
     42 H14         5.6588   -1.7483    0.7131 H         1 MOL         0.1617
     43 H15         7.4849   -2.4724   -0.6982 H         1 MOL         0.1438
     44 H16         9.6000   -3.7448   -0.9506 H         1 MOL         0.1387
     45 H17        10.5094   -5.0121    0.9942 H         1 MOL         0.1440
     46 H18         9.2386   -4.9474    3.1475 H         1 MOL         0.0235
@<TRIPOS>BOND
     1    1    2 1
     2    2    3 am
     3    3    4 2
     4    3    5 1
     5    5   10 ar
     6    5    6 ar
     7    6    7 ar
     8    7    8 ar
     9    8    9 ar
    10    9   10 ar
    11   10   11 1
    12   11   12 1
    13   12   17 ar
    14   12   13 ar
    15   13   14 ar
    16   14   15 ar
    17   15   20 1
    18   15   16 ar
    19   16   17 ar
    20   16   18 1
    21   18   19 1
    22   19   20 2
    23   20   21 1
    24   21   22 2
    25   22   23 1
    26   23   28 ar
    27   23   24 ar
    28   24   25 ar
    29   25   26 ar
    30   26   27 ar
    31   27   28 ar
    32    1   29 1
    33    1   30 1
    34    1   31 1
    35    2   32 1
    36    6   33 1
    37    7   34 1
    38    8   35 1
    39    9   36 1
    40   13   37 1
    41   14   38 1
    42   17   39 1
    43   18   40 1
    44   21   41 1
    45   22   42 1
    46   24   43 1
    47   25   44 1
    48   26   45 1
    49   27   46 1
@<TRIPOS>MOLECULE
~{N}-methyl-2-[[3-[(~{E})-2-(2-pyridyl)vinyl]-1~{H}-indazol-6-yl]sulfanyl]benzamide
   46    49     0     0     0
SMALL
USER_CHARGES

@<TRIPOS>ATOM
      1 C1         -4.9588    2.3896   -1.6107 C.3       1 MOL         0.0802
      2 N1         -4.5189    1.2120   -0.8976 N.am      1 MOL        -0.5743
      3 C2         -3.4955    1.2483    0.0361 C.2       1 MOL         0.6672
      4 O1         -2.8675    2.2555    0.3518 O.2       1 MOL        -0.5832
      5 C3         -3.1503   -0.0286    0.6511 C.ar      1 MOL        -0.1328
      6 C4         -4.1477   -0.6953    1.3627 C.ar      1 MOL        -0.0937
      7 C5         -3.8713   -1.9205    1.9694 C.ar      1 MOL        -0.1467
      8 C6         -2.5974   -2.4790    1.8647 C.ar      1 MOL        -0.0974
      9 C7         -1.5999   -1.8122    1.1532 C.ar      1 MOL        -0.1577
     10 C8         -1.8764   -0.5870    0.5464 C.ar      1 MOL         0.0287
     11 S1         -0.5618    0.2240   -0.3504 S.3       1 MOL        -0.0864
     12 C9          0.8725   -0.3471    0.5479 C.ar      1 MOL        -0.0352
     13 C10         1.8575   -1.0770   -0.1202 C.ar      1 MOL        -0.1080
     14 C11         2.9942   -1.5392    0.5550 C.ar      1 MOL        -0.0801
     15 C12         3.1242   -1.2526    1.9242 C.ar      1 MOL        -0.1729
     16 C13         2.1285   -0.5238    2.5651 C.ar      1 MOL         0.0545
     17 C14         0.9878   -0.0537    1.9107 C.ar      1 MOL        -0.0801
     18 N2          2.5420   -0.4150    3.8654 N.pl3     1 MOL        -0.3860
     19 N3          3.7190   -1.0102    4.1207 N.2       1 MOL        -0.3947
     20 C15         4.0702   -1.5186    2.9374 C.2       1 MOL         0.3773
     21 C16         5.2721   -2.2471    2.7384 C.2       1 MOL        -0.1776
     22 C17         6.2213   -2.5307    3.6913 C.2       1 MOL        -0.1980
     23 C18         7.4594   -3.3037    3.4886 C.ar      1 MOL         0.4459
     24 C19         8.3270   -3.5111    4.5488 C.ar      1 MOL        -0.2368
     25 C20         9.4824   -4.2469    4.3098 C.ar      1 MOL        -0.0928
     26 C21         9.7311   -4.7458    3.0360 C.ar      1 MOL        -0.2453
     27 C22         8.8006   -4.4832    2.0435 C.ar      1 MOL         0.3986
     28 N4          7.6671   -3.7725    2.2377 N.ar      1 MOL        -0.6566
     29 H1         -4.3900    2.5021   -2.5373 H         1 MOL         0.0431
     30 H2         -4.8099    3.2814   -0.9958 H         1 MOL         0.0431
     31 H3         -6.0208    2.3074   -1.8574 H         1 MOL         0.0431
     32 H4         -4.9761    0.3262   -1.0876 H         1 MOL         0.3101
     33 H5         -5.1447   -0.2710    1.4525 H         1 MOL         0.1410
     34 H6         -4.6478   -2.4395    2.5241 H         1 MOL         0.1378
     35 H7         -2.3826   -3.4330    2.3368 H         1 MOL         0.1360
     36 H8         -0.6140   -2.2654    1.0842 H         1 MOL         0.1467
     37 H9          1.7598   -1.3008   -1.1806 H         1 MOL         0.1544
     38 H10         3.7515   -2.1056    0.0213 H         1 MOL         0.1449
     39 H11         0.2325    0.5123    2.4465 H         1 MOL         0.1523
     40 H12         2.0676    0.0523    4.6279 H         1 MOL         0.4865
     41 H13         5.4618   -2.6595    1.7240 H         1 MOL         0.1330
     42 H14         6.0533   -2.1891    4.7098 H         1 MOL         0.1617
     43 H15         8.1262   -3.1187    5.5406 H         1 MOL         0.1438
     44 H16        10.1874   -4.4325    5.1146 H         1 MOL         0.1387
     45 H17        10.6254   -5.3213    2.8270 H         1 MOL         0.1440
     46 H18         8.9483   -4.8486    1.0326 H         1 MOL         0.0235
@<TRIPOS>BOND
     1    1    2 1
     2    2    3 am
     3    3    4 2
     4    3    5 1
     5    5   10 ar
     6    5    6 ar
     7    6    7 ar
     8    7    8 ar
     9    8    9 ar
    10    9   10 ar
    11   10   11 1
    12   11   12 1
    13   12   17 ar
    14   12   13 ar
    15   13   14 ar
    16   14   15 ar
    17   15   20 1
    18   15   16 ar
    19   16   17 ar
    20   16   18 1
    21   18   19 1
    22   19   20 2
    23   20   21 1
    24   21   22 2
    25   22   23 1
    26   23   28 ar
    27   23   24 ar
    28   24   25 ar
    29   25   26 ar
    30   26   27 ar
    31   27   28 ar
    32    1   29 1
    33    1   30 1
    34    1   31 1
    35    2   32 1
    36    6   33 1
    37    7   34 1
    38    8   35 1
    39    9   36 1
    40   13   37 1
    41   14   38 1
    42   17   39 1
    43   18   40 1
    44   21   41 1
    45   22   42 1
    46   24   43 1
    47   25   44 1
    48   26   45 1
    49   27   46 1
@<TRIPOS>MOLECULE
~{N}-methyl-2-[[3-[(~{E})-2-(2-pyridyl)vinyl]-1~{H}-indazol-6-yl]sulfanyl]benzamide
   46    49     0     0     0
SMALL
USER_CHARGES

@<TRIPOS>ATOM
      1 C1         -3.9653    1.1645   -3.9758 C.3       1 MOL         0.0802
      2 N1         -2.6572    1.6460   -3.5941 N.am      1 MOL        -0.5743
      3 C2         -1.6252    0.7914   -3.2405 C.2       1 MOL         0.6672
      4 O1         -1.7056   -0.4339   -3.2132 O.2       1 MOL        -0.5832
      5 C3         -0.3728    1.4321   -2.8548 C.ar      1 MOL        -0.1328
      6 C4          0.2554    2.2459   -3.7977 C.ar      1 MOL        -0.0937
      7 C5          1.4547    2.8834   -3.4801 C.ar      1 MOL        -0.1467
      8 C6          2.0258    2.7072   -2.2198 C.ar      1 MOL        -0.0974
      9 C7          1.3976    1.8934   -1.2770 C.ar      1 MOL        -0.1577
     10 C8          0.1983    1.2559   -1.5946 C.ar      1 MOL         0.0287
     11 S1         -0.5618    0.2240   -0.3504 S.3       1 MOL        -0.0864
     12 C9          0.8725   -0.3471    0.5479 C.ar      1 MOL        -0.0352
     13 C10         1.8575   -1.0770   -0.1202 C.ar      1 MOL        -0.1080
     14 C11         2.9942   -1.5392    0.5550 C.ar      1 MOL        -0.0801
     15 C12         3.1242   -1.2526    1.9242 C.ar      1 MOL        -0.1729
     16 C13         2.1285   -0.5238    2.5651 C.ar      1 MOL         0.0545
     17 C14         0.9878   -0.0537    1.9107 C.ar      1 MOL        -0.0801
     18 N2          2.5420   -0.4150    3.8654 N.pl3     1 MOL        -0.3860
     19 N3          3.7190   -1.0102    4.1207 N.2       1 MOL        -0.3947
     20 C15         4.0702   -1.5186    2.9374 C.2       1 MOL         0.3773
     21 C16         5.2721   -2.2471    2.7384 C.2       1 MOL        -0.1776
     22 C17         6.2213   -2.5307    3.6913 C.2       1 MOL        -0.1980
     23 C18         7.4594   -3.3037    3.4886 C.ar      1 MOL         0.4459
     24 C19         8.3270   -3.5111    4.5488 C.ar      1 MOL        -0.2368
     25 C20         9.4824   -4.2469    4.3098 C.ar      1 MOL        -0.0928
     26 C21         9.7311   -4.7458    3.0360 C.ar      1 MOL        -0.2453
     27 C22         8.8006   -4.4832    2.0435 C.ar      1 MOL         0.3986
     28 N4          7.6671   -3.7725    2.2377 N.ar      1 MOL        -0.6566
     29 H1         -4.6068    1.0809   -3.0947 H         1 MOL         0.0431
     30 H2         -3.8835    0.1808   -4.4462 H         1 MOL         0.0431
     31 H3         -4.4299    1.8545   -4.6853 H         1 MOL         0.0431
     32 H4         -2.4883    2.6466   -3.5846 H         1 MOL         0.3101
     33 H5         -0.1787    2.3914   -4.7838 H         1 MOL         0.1410
     34 H6          1.9443    3.5167   -4.2145 H         1 MOL         0.1378
     35 H7          2.9593    3.2040   -1.9727 H         1 MOL         0.1360
     36 H8          1.8602    1.7698   -0.3008 H         1 MOL         0.1467
     37 H9          1.7598   -1.3008   -1.1806 H         1 MOL         0.1544
     38 H10         3.7515   -2.1056    0.0213 H         1 MOL         0.1449
     39 H11         0.2325    0.5123    2.4465 H         1 MOL         0.1523
     40 H12         2.0676    0.0523    4.6279 H         1 MOL         0.4865
     41 H13         5.4618   -2.6595    1.7240 H         1 MOL         0.1330
     42 H14         6.0533   -2.1891    4.7098 H         1 MOL         0.1617
     43 H15         8.1262   -3.1187    5.5406 H         1 MOL         0.1438
     44 H16        10.1874   -4.4325    5.1146 H         1 MOL         0.1387
     45 H17        10.6254   -5.3213    2.8270 H         1 MOL         0.1440
     46 H18         8.9483   -4.8486    1.0326 H         1 MOL         0.0235
@<TRIPOS>BOND
     1    1    2 1
     2    2    3 am
     3    3    4 2
     4    3    5 1
     5    5   10 ar
     6    5    6 ar
     7    6    7 ar
     8    7    8 ar
     9    8    9 ar
    10    9   10 ar
    11   10   11 1
    12   11   12 1
    13   12   17 ar
    14   12   13 ar
    15   13   14 ar
    16   14   15 ar
    17   15   20 1
    18   15   16 ar
    19   16   17 ar
    20   16   18 1
    21   18   19 1
    22   19   20 2
    23   20   21 1
    24   21   22 2
    25   22   23 1
    26   23   28 ar
    27   23   24 ar
    28   24   25 ar
    29   25   26 ar
    30   26   27 ar
    31   27   28 ar
    32    1   29 1
    33    1   30 1
    34    1   31 1
    35    2   32 1
    36    6   33 1
    37    7   34 1
    38    8   35 1
    39    9   36 1
    40   13   37 1
    41   14   38 1
    42   17   39 1
    43   18   40 1
    44   21   41 1
    45   22   42 1
    46   24   43 1
    47   25   44 1
    48   26   45 1
    49   27   46 1
@<TRIPOS>MOLECULE
~{N}-methyl-2-[[3-[(~{E})-2-(2-pyridyl)vinyl]-1~{H}-indazol-6-yl]sulfanyl]benzamide
   46    49     0     0     0
SMALL
USER_CHARGES

@<TRIPOS>ATOM
      1 C1         -3.6267   -3.7799   -0.9887 C.3       1 MOL         0.0802
      2 N1         -3.5910   -2.5556   -0.2215 N.am      1 MOL        -0.5743
      3 C2         -2.4565   -2.1355    0.4544 C.2       1 MOL         0.6672
      4 O1         -1.3872   -2.7393    0.4757 O.2       1 MOL        -0.5832
      5 C3         -2.5875   -0.8916    1.2050 C.ar      1 MOL        -0.1328
      6 C4         -3.5427   -0.8455    2.2205 C.ar      1 MOL        -0.0937
      7 C5         -3.7083    0.3193    2.9698 C.ar      1 MOL        -0.1467
      8 C6         -2.9188    1.4380    2.7037 C.ar      1 MOL        -0.0974
      9 C7         -1.9636    1.3919    1.6882 C.ar      1 MOL        -0.1577
     10 C8         -1.7980    0.2271    0.9388 C.ar      1 MOL         0.0287
     11 S1         -0.5618    0.2240   -0.3504 S.3       1 MOL        -0.0864
     12 C9          0.8725   -0.3471    0.5479 C.ar      1 MOL        -0.0352
     13 C10         1.8575   -1.0770   -0.1202 C.ar      1 MOL        -0.1080
     14 C11         2.9942   -1.5392    0.5550 C.ar      1 MOL        -0.0801
     15 C12         3.1242   -1.2526    1.9242 C.ar      1 MOL        -0.1729
     16 C13         2.1285   -0.5238    2.5651 C.ar      1 MOL         0.0545
     17 C14         0.9878   -0.0537    1.9107 C.ar      1 MOL        -0.0801
     18 N2          2.5420   -0.4150    3.8654 N.pl3     1 MOL        -0.3860
     19 N3          3.7190   -1.0102    4.1207 N.2       1 MOL        -0.3947
     20 C15         4.0702   -1.5186    2.9374 C.2       1 MOL         0.3773
     21 C16         5.2721   -2.2471    2.7384 C.2       1 MOL        -0.1776
     22 C17         6.2213   -2.5307    3.6913 C.2       1 MOL        -0.1980
     23 C18         7.4594   -3.3037    3.4886 C.ar      1 MOL         0.4459
     24 C19         8.3270   -3.5111    4.5488 C.ar      1 MOL        -0.2368
     25 C20         9.4824   -4.2469    4.3098 C.ar      1 MOL        -0.0928
     26 C21         9.7311   -4.7458    3.0360 C.ar      1 MOL        -0.2453
     27 C22         8.8006   -4.4832    2.0435 C.ar      1 MOL         0.3986
     28 N4          7.6671   -3.7725    2.2377 N.ar      1 MOL        -0.6566
     29 H1         -3.9427   -4.6119   -0.3540 H         1 MOL         0.0431
     30 H2         -2.6351   -4.0020   -1.3923 H         1 MOL         0.0431
     31 H3         -4.3302   -3.6845   -1.8201 H         1 MOL         0.0431
     32 H4         -4.4273   -1.9826   -0.1761 H         1 MOL         0.3101
     33 H5         -4.1649   -1.7101    2.4380 H         1 MOL         0.1410
     34 H6         -4.4525    0.3554    3.7603 H         1 MOL         0.1378
     35 H7         -3.0476    2.3444    3.2875 H         1 MOL         0.1360
     36 H8         -1.3591    2.2753    1.4975 H         1 MOL         0.1467
     37 H9          1.7598   -1.3008   -1.1806 H         1 MOL         0.1544
     38 H10         3.7515   -2.1056    0.0213 H         1 MOL         0.1449
     39 H11         0.2325    0.5123    2.4465 H         1 MOL         0.1523
     40 H12         2.0676    0.0523    4.6279 H         1 MOL         0.4865
     41 H13         5.4618   -2.6595    1.7240 H         1 MOL         0.1330
     42 H14         6.0533   -2.1891    4.7098 H         1 MOL         0.1617
     43 H15         8.1262   -3.1187    5.5406 H         1 MOL         0.1438
     44 H16        10.1874   -4.4325    5.1146 H         1 MOL         0.1387
     45 H17        10.6254   -5.3213    2.8270 H         1 MOL         0.1440
     46 H18         8.9483   -4.8486    1.0326 H         1 MOL         0.0235
@<TRIPOS>BOND
     1    1    2 1
     2    2    3 am
     3    3    4 2
     4    3    5 1
     5    5   10 ar
     6    5    6 ar
     7    6    7 ar
     8    7    8 ar
     9    8    9 ar
    10    9   10 ar
    11   10   11 1
    12   11   12 1
    13   12   17 ar
    14   12   13 ar
    15   13   14 ar
    16   14   15 ar
    17   15   20 1
    18   15   16 ar
    19   16   17 ar
    20   16   18 1
    21   18   19 1
    22   19   20 2
    23   20   21 1
    24   21   22 2
    25   22   23 1
    26   23   28 ar
    27   23   24 ar
    28   24   25 ar
    29   25   26 ar
    30   26   27 ar
    31   27   28 ar
    32    1   29 1
    33    1   30 1
    34    1   31 1
    35    2   32 1
    36    6   33 1
    37    7   34 1
    38    8   35 1
    39    9   36 1
    40   13   37 1
    41   14   38 1
    42   17   39 1
    43   18   40 1
    44   21   41 1
    45   22   42 1
    46   24   43 1
    47   25   44 1
    48   26   45 1
    49   27   46 1
@<TRIPOS>MOLECULE
~{N}-methyl-2-[[3-[(~{E})-2-(2-pyridyl)vinyl]-1~{H}-indazol-6-yl]sulfanyl]benzamide
   46    49     0     0     0
SMALL
USER_CHARGES

@<TRIPOS>ATOM
      1 C1         -3.7973   -1.4807    1.7387 C.3       1 MOL         0.0802
      2 N1         -2.8851   -0.3601    1.7096 N.am      1 MOL        -0.5743
      3 C2         -3.2298    0.8639    1.1587 C.2       1 MOL         0.6672
      4 O1         -4.3166    1.1243    0.6493 O.2       1 MOL        -0.5832
      5 C3         -2.1904    1.8872    1.1822 C.ar      1 MOL        -0.1328
      6 C4         -2.4608    3.0692    1.8716 C.ar      1 MOL        -0.0937
      7 C5         -1.5010    4.0799    1.9264 C.ar      1 MOL        -0.1467
      8 C6         -0.2708    3.9085    1.2917 C.ar      1 MOL        -0.0974
      9 C7         -0.0004    2.7264    0.6023 C.ar      1 MOL        -0.1577
     10 C8         -0.9602    1.7158    0.5475 C.ar      1 MOL         0.0287
     11 S1         -0.5618    0.2240   -0.3504 S.3       1 MOL        -0.0864
     12 C9          0.8725   -0.3471    0.5479 C.ar      1 MOL        -0.0352
     13 C10         1.8575   -1.0770   -0.1202 C.ar      1 MOL        -0.1080
     14 C11         2.9942   -1.5392    0.5550 C.ar      1 MOL        -0.0801
     15 C12         3.1242   -1.2526    1.9242 C.ar      1 MOL        -0.1729
     16 C13         2.1285   -0.5238    2.5651 C.ar      1 MOL         0.0545
     17 C14         0.9878   -0.0537    1.9107 C.ar      1 MOL        -0.0801
     18 N2          2.5420   -0.4150    3.8654 N.pl3     1 MOL        -0.3860
     19 N3          3.7190   -1.0102    4.1207 N.2       1 MOL        -0.3947
     20 C15         4.0702   -1.5186    2.9374 C.2       1 MOL         0.3773
     21 C16         5.2721   -2.2471    2.7384 C.2       1 MOL        -0.1776
     22 C17         5.9223   -3.0188    3.6718 C.2       1 MOL        -0.1980
     23 C18         7.1595   -3.7904    3.4591 C.ar      1 MOL         0.4459
     24 C19         7.7028   -4.5274    4.4991 C.ar      1 MOL        -0.2368
     25 C20         8.8707   -5.2399    4.2509 C.ar      1 MOL        -0.0928
     26 C21         9.4512   -5.1945    2.9883 C.ar      1 MOL        -0.2453
     27 C22         8.8296   -4.4278    2.0159 C.ar      1 MOL         0.3986
     28 N4          7.6946   -3.7221    2.2195 N.ar      1 MOL        -0.6566
     29 H1         -3.6813   -2.0832    0.8341 H         1 MOL         0.0431
     30 H2         -4.8300   -1.1261    1.7954 H         1 MOL         0.0431
     31 H3         -3.5947   -2.1104    2.6093 H         1 MOL         0.0431
     32 H4         -1.9583   -0.4737    2.1070 H         1 MOL         0.3101
     33 H5         -3.4158    3.2159    2.3702 H         1 MOL         0.1410
     34 H6         -1.7118    5.0007    2.4627 H         1 MOL         0.1378
     35 H7          0.4764    4.6953    1.3349 H         1 MOL         0.1360
     36 H8          0.9649    2.6138    0.1147 H         1 MOL         0.1467
     37 H9          1.7598   -1.3008   -1.1806 H         1 MOL         0.1544
     38 H10         3.7515   -2.1056    0.0213 H         1 MOL         0.1449
     39 H11         0.2325    0.5123    2.4465 H         1 MOL         0.1523
     40 H12         2.0676    0.0523    4.6279 H         1 MOL         0.4865
     41 H13         5.7261   -2.2235    1.7243 H         1 MOL         0.1330
     42 H14         5.4872   -3.1107    4.6640 H         1 MOL         0.1617
     43 H15         7.2439   -4.5582    5.4821 H         1 MOL         0.1438
     44 H16         9.3275   -5.8307    5.0393 H         1 MOL         0.1387
     45 H17        10.3618   -5.7415    2.7728 H         1 MOL         0.1440
     46 H18         9.2429   -4.3578    1.0151 H         1 MOL         0.0235
@<TRIPOS>BOND
     1    1    2 1
     2    2    3 am
     3    3    4 2
     4    3    5 1
     5    5   10 ar
     6    5    6 ar
     7    6    7 ar
     8    7    8 ar
     9    8    9 ar
    10    9   10 ar
    11   10   11 1
    12   11   12 1
    13   12   17 ar
    14   12   13 ar
    15   13   14 ar
    16   14   15 ar
    17   15   20 1
    18   15   16 ar
    19   16   17 ar
    20   16   18 1
    21   18   19 1
    22   19   20 2
    23   20   21 1
    24   21   22 2
    25   22   23 1
    26   23   28 ar
    27   23   24 ar
    28   24   25 ar
    29   25   26 ar
    30   26   27 ar
    31   27   28 ar
    32    1   29 1
    33    1   30 1
    34    1   31 1
    35    2   32 1
    36    6   33 1
    37    7   34 1
    38    8   35 1
    39    9   36 1
    40   13   37 1
    41   14   38 1
    42   17   39 1
    43   18   40 1
    44   21   41 1
    45   22   42 1
    46   24   43 1
    47   25   44 1
    48   26   45 1
    49   27   46 1
@<TRIPOS>MOLECULE
~{N}-methyl-2-[[3-[(~{E})-2-(2-pyridyl)vinyl]-1~{H}-indazol-6-yl]sulfanyl]benzamide
   46    49     0     0     0
SMALL
USER_CHARGES

@<TRIPOS>ATOM
      1 C1         -2.9598    2.4443    2.3477 C.3       1 MOL         0.0802
      2 N1         -2.1615    2.4989    1.1441 N.am      1 MOL        -0.5743
      3 C2         -0.8556    2.9625    1.1394 C.2       1 MOL         0.6672
      4 O1         -0.2497    3.3665    2.1285 O.2       1 MOL        -0.5832
      5 C3         -0.1915    2.9797   -0.1593 C.ar      1 MOL        -0.1328
      6 C4          0.2609    4.2089   -0.6390 C.ar      1 MOL        -0.0937
      7 C5          0.9037    4.2814   -1.8748 C.ar      1 MOL        -0.1467
      8 C6          1.0940    3.1248   -2.6309 C.ar      1 MOL        -0.0974
      9 C7          0.6416    1.8956   -2.1511 C.ar      1 MOL        -0.1577
     10 C8         -0.0012    1.8231   -0.9153 C.ar      1 MOL         0.0287
     11 S1         -0.5618    0.2240   -0.3504 S.3       1 MOL        -0.0864
     12 C9          0.8725   -0.3471    0.5479 C.ar      1 MOL        -0.0352
     13 C10         1.8575   -1.0770   -0.1202 C.ar      1 MOL        -0.1080
     14 C11         2.9942   -1.5392    0.5550 C.ar      1 MOL        -0.0801
     15 C12         3.1242   -1.2526    1.9242 C.ar      1 MOL        -0.1729
     16 C13         2.1285   -0.5238    2.5651 C.ar      1 MOL         0.0545
     17 C14         0.9878   -0.0537    1.9107 C.ar      1 MOL        -0.0801
     18 N2          2.5420   -0.4150    3.8654 N.pl3     1 MOL        -0.3860
     19 N3          3.7190   -1.0102    4.1207 N.2       1 MOL        -0.3947
     20 C15         4.0702   -1.5186    2.9374 C.2       1 MOL         0.3773
     21 C16         5.2721   -2.2471    2.7384 C.2       1 MOL        -0.1776
     22 C17         6.2915   -1.9193    1.8765 C.2       1 MOL        -0.1980
     23 C18         7.5476   -2.6654    1.6845 C.ar      1 MOL         0.4459
     24 C19         8.4897   -2.2120    0.7753 C.ar      1 MOL        -0.2368
     25 C20         9.6598   -2.9487    0.6287 C.ar      1 MOL        -0.0928
     26 C21         9.8493   -4.0998    1.3851 C.ar      1 MOL        -0.2453
     27 C22         8.8464   -4.4687    2.2672 C.ar      1 MOL         0.3986
     28 N4          7.6963   -3.7787    2.4370 N.ar      1 MOL        -0.6566
     29 H1         -3.5059    3.3821    2.4791 H         1 MOL         0.0431
     30 H2         -2.3191    2.2851    3.2192 H         1 MOL         0.0431
     31 H3         -3.6794    1.6235    2.2870 H         1 MOL         0.0431
     32 H4         -2.5724    2.1862    0.2704 H         1 MOL         0.3101
     33 H5          0.1185    5.1181   -0.0601 H         1 MOL         0.1410
     34 H6          1.2555    5.2387   -2.2487 H         1 MOL         0.1378
     35 H7          1.5949    3.1815   -3.5927 H         1 MOL         0.1360
     36 H8          0.8003    1.0066   -2.7567 H         1 MOL         0.1467
     37 H9          1.7598   -1.3008   -1.1806 H         1 MOL         0.1544
     38 H10         3.7515   -2.1056    0.0213 H         1 MOL         0.1449
     39 H11         0.2325    0.5123    2.4465 H         1 MOL         0.1523
     40 H12         2.0676    0.0523    4.6279 H         1 MOL         0.4865
     41 H13         5.4299   -3.1578    3.3555 H         1 MOL         0.1330
     42 H14         6.2020   -1.0092    1.2882 H         1 MOL         0.1617
     43 H15         8.3349   -1.3123    0.1883 H         1 MOL         0.1438
     44 H16        10.4234   -2.6262   -0.0728 H         1 MOL         0.1387
     45 H17        10.7533   -4.6897    1.2866 H         1 MOL         0.1440
     46 H18         8.9447   -5.3591    2.8793 H         1 MOL         0.0235
@<TRIPOS>BOND
     1    1    2 1
     2    2    3 am
     3    3    4 2
     4    3    5 1
     5    5   10 ar
     6    5    6 ar
     7    6    7 ar
     8    7    8 ar
     9    8    9 ar
    10    9   10 ar
    11   10   11 1
    12   11   12 1
    13   12   17 ar
    14   12   13 ar
    15   13   14 ar
    16   14   15 ar
    17   15   20 1
    18   15   16 ar
    19   16   17 ar
    20   16   18 1
    21   18   19 1
    22   19   20 2
    23   20   21 1
    24   21   22 2
    25   22   23 1
    26   23   28 ar
    27   23   24 ar
    28   24   25 ar
    29   25   26 ar
    30   26   27 ar
    31   27   28 ar
    32    1   29 1
    33    1   30 1
    34    1   31 1
    35    2   32 1
    36    6   33 1
    37    7   34 1
    38    8   35 1
    39    9   36 1
    40   13   37 1
    41   14   38 1
    42   17   39 1
    43   18   40 1
    44   21   41 1
    45   22   42 1
    46   24   43 1
    47   25   44 1
    48   26   45 1
    49   27   46 1
@<TRIPOS>MOLECULE
~{N}-methyl-2-[[3-[(~{E})-2-(2-pyridyl)vinyl]-1~{H}-indazol-6-yl]sulfanyl]benzamide
   46    49     0     0     0
SMALL
USER_CHARGES

@<TRIPOS>ATOM
      1 C1          2.9526    3.1128    1.8667 C.3       1 MOL         0.0802
      2 N1          2.5496    2.7722    0.5212 N.am      1 MOL        -0.5743
      3 C2          1.2214    2.7535    0.1261 C.2       1 MOL         0.6672
      4 O1          0.2678    3.0164    0.8541 O.2       1 MOL        -0.5832
      5 C3          0.9752    2.3643   -1.2581 C.ar      1 MOL        -0.1328
      6 C4          1.5494    3.1443   -2.2619 C.ar      1 MOL        -0.0937
      7 C5          1.3467    2.8157   -3.6023 C.ar      1 MOL        -0.1467
      8 C6          0.5698    1.7072   -3.9388 C.ar      1 MOL        -0.0974
      9 C7         -0.0044    0.9273   -2.9349 C.ar      1 MOL        -0.1577
     10 C8          0.1983    1.2559   -1.5946 C.ar      1 MOL         0.0287
     11 S1         -0.5618    0.2240   -0.3504 S.3       1 MOL        -0.0864
     12 C9          0.8725   -0.3471    0.5479 C.ar      1 MOL        -0.0352
     13 C10         1.8575   -1.0770   -0.1202 C.ar      1 MOL        -0.1080
     14 C11         2.9942   -1.5392    0.5550 C.ar      1 MOL        -0.0801
     15 C12         3.1242   -1.2526    1.9242 C.ar      1 MOL        -0.1729
     16 C13         2.1285   -0.5238    2.5651 C.ar      1 MOL         0.0545
     17 C14         0.9878   -0.0537    1.9107 C.ar      1 MOL        -0.0801
     18 N2          2.5420   -0.4150    3.8654 N.pl3     1 MOL        -0.3860
     19 N3          3.7190   -1.0102    4.1207 N.2       1 MOL        -0.3947
     20 C15         4.0702   -1.5186    2.9374 C.2       1 MOL         0.3773
     21 C16         5.2721   -2.2471    2.7384 C.2       1 MOL        -0.1776
     22 C17         6.2915   -1.9193    1.8765 C.2       1 MOL        -0.1980
     23 C18         7.5476   -2.6654    1.6845 C.ar      1 MOL         0.4459
     24 C19         8.4897   -2.2120    0.7753 C.ar      1 MOL        -0.2368
     25 C20         9.6598   -2.9487    0.6287 C.ar      1 MOL        -0.0928
     26 C21         9.8493   -4.0998    1.3851 C.ar      1 MOL        -0.2453
     27 C22         8.8464   -4.4687    2.2672 C.ar      1 MOL         0.3986
     28 N4          7.6963   -3.7787    2.4370 N.ar      1 MOL        -0.6566
     29 H1          2.9910    2.2131    2.4865 H         1 MOL         0.0431
     30 H2          2.2399    3.8144    2.3087 H         1 MOL         0.0431
     31 H3          3.9424    3.5771    1.8587 H         1 MOL         0.0431
     32 H4          3.2653    2.5383   -0.1590 H         1 MOL         0.3101
     33 H5          2.1567    4.0112   -2.0134 H         1 MOL         0.1410
     34 H6          1.7933    3.4234   -4.3841 H         1 MOL         0.1378
     35 H7          0.4125    1.4514   -4.9823 H         1 MOL         0.1360
     36 H8         -0.6064    0.0677   -3.2195 H         1 MOL         0.1467
     37 H9          1.7598   -1.3008   -1.1806 H         1 MOL         0.1544
     38 H10         3.7515   -2.1056    0.0213 H         1 MOL         0.1449
     39 H11         0.2325    0.5123    2.4465 H         1 MOL         0.1523
     40 H12         2.0676    0.0523    4.6279 H         1 MOL         0.4865
     41 H13         5.4299   -3.1578    3.3555 H         1 MOL         0.1330
     42 H14         6.2020   -1.0092    1.2882 H         1 MOL         0.1617
     43 H15         8.3349   -1.3123    0.1883 H         1 MOL         0.1438
     44 H16        10.4234   -2.6262   -0.0728 H         1 MOL         0.1387
     45 H17        10.7533   -4.6897    1.2866 H         1 MOL         0.1440
     46 H18         8.9447   -5.3591    2.8793 H         1 MOL         0.0235
@<TRIPOS>BOND
     1    1    2 1
     2    2    3 am
     3    3    4 2
     4    3    5 1
     5    5   10 ar
     6    5    6 ar
     7    6    7 ar
     8    7    8 ar
     9    8    9 ar
    10    9   10 ar
    11   10   11 1
    12   11   12 1
    13   12   17 ar
    14   12   13 ar
    15   13   14 ar
    16   14   15 ar
    17   15   20 1
    18   15   16 ar
    19   16   17 ar
    20   16   18 1
    21   18   19 1
    22   19   20 2
    23   20   21 1
    24   21   22 2
    25   22   23 1
    26   23   28 ar
    27   23   24 ar
    28   24   25 ar
    29   25   26 ar
    30   26   27 ar
    31   27   28 ar
    32    1   29 1
    33    1   30 1
    34    1   31 1
    35    2   32 1
    36    6   33 1
    37    7   34 1
    38    8   35 1
    39    9   36 1
    40   13   37 1
    41   14   38 1
    42   17   39 1
    43   18   40 1
    44   21   41 1
    45   22   42 1
    46   24   43 1
    47   25   44 1
    48   26   45 1
    49   27   46 1
@<TRIPOS>MOLECULE
~{N}-methyl-2-[[3-[(~{E})-2-(2-pyridyl)vinyl]-1~{H}-indazol-6-yl]sulfanyl]benzamide
   46    49     0     0     0
SMALL
USER_CHARGES

@<TRIPOS>ATOM
      1 C1          0.9381   -3.5631   -3.3537 C.3       1 MOL         0.0802
      2 N1          0.0036   -3.3729   -2.2678 N.am      1 MOL        -0.5743
      3 C2         -0.8497   -2.2828   -2.2046 C.2       1 MOL         0.6672
      4 O1         -0.9046   -1.3840   -3.0399 O.2       1 MOL        -0.5832
      5 C3         -1.7152   -2.2198   -1.0321 C.ar      1 MOL        -0.1328
      6 C4         -2.6029   -3.2757   -0.8249 C.ar      1 MOL        -0.0937
      7 C5         -3.4521   -3.2660    0.2816 C.ar      1 MOL        -0.1467
      8 C6         -3.4137   -2.2004    1.1809 C.ar      1 MOL        -0.0974
      9 C7         -2.5261   -1.1446    0.9737 C.ar      1 MOL        -0.1577
     10 C8         -1.6769   -1.1542   -0.1328 C.ar      1 MOL         0.0287
     11 S1         -0.5618    0.2240   -0.3504 S.3       1 MOL        -0.0864
     12 C9          0.8725   -0.3471    0.5479 C.ar      1 MOL        -0.0352
     13 C10         1.8575   -1.0770   -0.1202 C.ar      1 MOL        -0.1080
     14 C11         2.9942   -1.5392    0.5550 C.ar      1 MOL        -0.0801
     15 C12         3.1242   -1.2526    1.9242 C.ar      1 MOL        -0.1729
     16 C13         2.1285   -0.5238    2.5651 C.ar      1 MOL         0.0545
     17 C14         0.9878   -0.0537    1.9107 C.ar      1 MOL        -0.0801
     18 N2          2.5420   -0.4150    3.8654 N.pl3     1 MOL        -0.3860
     19 N3          3.7190   -1.0102    4.1207 N.2       1 MOL        -0.3947
     20 C15         4.0702   -1.5186    2.9374 C.2       1 MOL         0.3773
     21 C16         5.2721   -2.2471    2.7384 C.2       1 MOL        -0.1776
     22 C17         5.4745   -3.2526    1.8233 C.2       1 MOL        -0.1980
     23 C18         6.7281   -3.9953    1.6038 C.ar      1 MOL         0.4459
     24 C19         6.7843   -4.9885    0.6393 C.ar      1 MOL        -0.2368
     25 C20         7.9887   -5.6616    0.4678 C.ar      1 MOL        -0.0928
     26 C21         9.0847   -5.3257    1.2548 C.ar      1 MOL        -0.2453
     27 C22         8.9256   -4.3173    2.1916 C.ar      1 MOL         0.3986
     28 N4          7.7715   -3.6411    2.3871 N.ar      1 MOL        -0.6566
     29 H1          1.8924   -3.0859   -3.1160 H         1 MOL         0.0431
     30 H2          0.5437   -3.1225   -4.2733 H         1 MOL         0.0431
     31 H3          1.1102   -4.6296   -3.5218 H         1 MOL         0.0431
     32 H4         -0.0290   -4.0629   -1.5243 H         1 MOL         0.3101
     33 H5         -2.6433   -4.1121   -1.5184 H         1 MOL         0.1410
     34 H6         -4.1438   -4.0879    0.4426 H         1 MOL         0.1378
     35 H7         -4.0747   -2.1934    2.0424 H         1 MOL         0.1360
     36 H8         -2.5128   -0.3241    1.6870 H         1 MOL         0.1467
     37 H9          1.7598   -1.3008   -1.1806 H         1 MOL         0.1544
     38 H10         3.7515   -2.1056    0.0213 H         1 MOL         0.1449
     39 H11         0.2325    0.5123    2.4465 H         1 MOL         0.1523
     40 H12         2.0676    0.0523    4.6279 H         1 MOL         0.4865
     41 H13         6.1521   -1.9665    3.3564 H         1 MOL         0.1330
     42 H14         4.6552   -3.5270    1.1632 H         1 MOL         0.1617
     43 H15         5.9246   -5.2452    0.0285 H         1 MOL         0.1438
     44 H16         8.0741   -6.4459   -0.2784 H         1 MOL         0.1387
     45 H17        10.0329   -5.8376    1.1386 H         1 MOL         0.1440
     46 H18         9.7494   -4.0184    2.8315 H         1 MOL         0.0235
@<TRIPOS>BOND
     1    1    2 1
     2    2    3 am
     3    3    4 2
     4    3    5 1
     5    5   10 ar
     6    5    6 ar
     7    6    7 ar
     8    7    8 ar
     9    8    9 ar
    10    9   10 ar
    11   10   11 1
    12   11   12 1
    13   12   17 ar
    14   12   13 ar
    15   13   14 ar
    16   14   15 ar
    17   15   20 1
    18   15   16 ar
    19   16   17 ar
    20   16   18 1
    21   18   19 1
    22   19   20 2
    23   20   21 1
    24   21   22 2
    25   22   23 1
    26   23   28 ar
    27   23   24 ar
    28   24   25 ar
    29   25   26 ar
    30   26   27 ar
    31   27   28 ar
    32    1   29 1
    33    1   30 1
    34    1   31 1
    35    2   32 1
    36    6   33 1
    37    7   34 1
    38    8   35 1
    39    9   36 1
    40   13   37 1
    41   14   38 1
    42   17   39 1
    43   18   40 1
    44   21   41 1
    45   22   42 1
    46   24   43 1
    47   25   44 1
    48   26   45 1
    49   27   46 1
@<TRIPOS>MOLECULE
~{N}-methyl-2-[[3-[(~{E})-2-(2-pyridyl)vinyl]-1~{H}-indazol-6-yl]sulfanyl]benzamide
   46    49     0     0     0
SMALL
USER_CHARGES

@<TRIPOS>ATOM
      1 C1         -0.6815   -2.5051   -4.1518 C.3       1 MOL         0.0802
      2 N1         -0.0475   -1.3115   -3.6398 N.am      1 MOL        -0.5743
      3 C2         -0.7379   -0.1238   -3.4574 C.2       1 MOL         0.6672
      4 O1         -1.9299    0.0411   -3.7034 O.2       1 MOL        -0.5832
      5 C3          0.0483    0.9984   -2.9572 C.ar      1 MOL        -0.1328
      6 C4          0.6608    1.8292   -3.8955 C.ar      1 MOL        -0.0937
      7 C5          1.4232    2.9175   -3.4711 C.ar      1 MOL        -0.1467
      8 C6          1.5731    3.1750   -2.1085 C.ar      1 MOL        -0.0974
      9 C7          0.9607    2.3442   -1.1702 C.ar      1 MOL        -0.1577
     10 C8          0.1983    1.2559   -1.5946 C.ar      1 MOL         0.0287
     11 S1         -0.5618    0.2240   -0.3504 S.3       1 MOL        -0.0864
     12 C9          0.8725   -0.3471    0.5479 C.ar      1 MOL        -0.0352
     13 C10         1.8575   -1.0770   -0.1202 C.ar      1 MOL        -0.1080
     14 C11         2.9942   -1.5392    0.5550 C.ar      1 MOL        -0.0801
     15 C12         3.1242   -1.2526    1.9242 C.ar      1 MOL        -0.1729
     16 C13         2.1285   -0.5238    2.5651 C.ar      1 MOL         0.0545
     17 C14         0.9878   -0.0537    1.9107 C.ar      1 MOL        -0.0801
     18 N2          2.5420   -0.4150    3.8654 N.pl3     1 MOL        -0.3860
     19 N3          3.7190   -1.0102    4.1207 N.2       1 MOL        -0.3947
     20 C15         4.0702   -1.5186    2.9374 C.2       1 MOL         0.3773
     21 C16         5.2721   -2.2471    2.7384 C.2       1 MOL        -0.1776
     22 C17         6.0033   -2.3127    1.5763 C.2       1 MOL        -0.1980
     23 C18         7.2613   -3.0535    1.3759 C.ar      1 MOL         0.4459
     24 C19         7.8906   -3.0273    0.1417 C.ar      1 MOL        -0.2368
     25 C20         9.0756   -3.7409    0.0003 C.ar      1 MOL        -0.0928
     26 C21         9.5877   -4.4486    1.0820 C.ar      1 MOL        -0.2453
     27 C22         8.8825   -4.4110    2.2741 C.ar      1 MOL         0.3986
     28 N4          7.7284   -3.7292    2.4495 N.ar      1 MOL        -0.6566
     29 H1         -0.6092   -2.5306   -5.2422 H         1 MOL         0.0431
     30 H2         -1.7374   -2.5235   -3.8685 H         1 MOL         0.0431
     31 H3         -0.1942   -3.3957   -3.7459 H         1 MOL         0.0431
     32 H4          0.9392   -1.3443   -3.4052 H         1 MOL         0.3101
     33 H5          0.5524    1.6396   -4.9606 H         1 MOL         0.1410
     34 H6          1.9006    3.5642   -4.2018 H         1 MOL         0.1378
     35 H7          2.1663    4.0225   -1.7784 H         1 MOL         0.1360
     36 H8          1.0907    2.5630   -0.1131 H         1 MOL         0.1467
     37 H9          1.7598   -1.3008   -1.1806 H         1 MOL         0.1544
     38 H10         3.7515   -2.1056    0.0213 H         1 MOL         0.1449
     39 H11         0.2325    0.5123    2.4465 H         1 MOL         0.1523
     40 H12         2.0676    0.0523    4.6279 H         1 MOL         0.4865
     41 H13         5.6893   -2.7988    3.6082 H         1 MOL         0.1330
     42 H14         5.6588   -1.7483    0.7131 H         1 MOL         0.1617
     43 H15         7.4849   -2.4724   -0.6982 H         1 MOL         0.1438
     44 H16         9.6000   -3.7448   -0.9506 H         1 MOL         0.1387
     45 H17        10.5094   -5.0121    0.9942 H         1 MOL         0.1440
     46 H18         9.2386   -4.9474    3.1475 H         1 MOL         0.0235
@<TRIPOS>BOND
     1    1    2 1
     2    2    3 am
     3    3    4 2
     4    3    5 1
     5    5   10 ar
     6    5    6 ar
     7    6    7 ar
     8    7    8 ar
     9    8    9 ar
    10    9   10 ar
    11   10   11 1
    12   11   12 1
    13   12   17 ar
    14   12   13 ar
    15   13   14 ar
    16   14   15 ar
    17   15   20 1
    18   15   16 ar
    19   16   17 ar
    20   16   18 1
    21   18   19 1
    22   19   20 2
    23   20   21 1
    24   21   22 2
    25   22   23 1
    26   23   28 ar
    27   23   24 ar
    28   24   25 ar
    29   25   26 ar
    30   26   27 ar
    31   27   28 ar
    32    1   29 1
    33    1   30 1
    34    1   31 1
    35    2   32 1
    36    6   33 1
    37    7   34 1
    38    8   35 1
    39    9   36 1
    40   13   37 1
    41   14   38 1
    42   17   39 1
    43   18   40 1
    44   21   41 1
    45   22   42 1
    46   24   43 1
    47   25   44 1
    48   26   45 1
    49   27   46 1
@<TRIPOS>MOLECULE
~{N}-methyl-2-[[3-[(~{E})-2-(2-pyridyl)vinyl]-1~{H}-indazol-6-yl]sulfanyl]benzamide
   46    49     0     0     0
SMALL
USER_CHARGES

@<TRIPOS>ATOM
      1 C1         -2.2261   -0.8009    3.3804 C.3       1 MOL         0.0802
      2 N1         -2.2530   -1.1001    1.9667 N.am      1 MOL        -0.5743
      3 C2         -1.5516   -2.1623    1.4188 C.2       1 MOL         0.6672
      4 O1         -0.8501   -2.9442    2.0553 O.2       1 MOL        -0.5832
      5 C3         -1.6595   -2.3172   -0.0276 C.ar      1 MOL        -0.1328
      6 C4         -2.1927   -3.5113   -0.5130 C.ar      1 MOL        -0.0937
      7 C5         -2.3193   -3.7106   -1.8878 C.ar      1 MOL        -0.1467
      8 C6         -1.9126   -2.7159   -2.7771 C.ar      1 MOL        -0.0974
      9 C7         -1.3794   -1.5219   -2.2916 C.ar      1 MOL        -0.1577
     10 C8         -1.2528   -1.3226   -0.9169 C.ar      1 MOL         0.0287
     11 S1         -0.5618    0.2240   -0.3504 S.3       1 MOL        -0.0864
     12 C9          0.8725   -0.3471    0.5479 C.ar      1 MOL        -0.0352
     13 C10         1.8575   -1.0770   -0.1202 C.ar      1 MOL        -0.1080
     14 C11         2.9942   -1.5392    0.5550 C.ar      1 MOL        -0.0801
     15 C12         3.1242   -1.2526    1.9242 C.ar      1 MOL        -0.1729
     16 C13         2.1285   -0.5238    2.5651 C.ar      1 MOL         0.0545
     17 C14         0.9878   -0.0537    1.9107 C.ar      1 MOL        -0.0801
     18 N2          2.5420   -0.4150    3.8654 N.pl3     1 MOL        -0.3860
     19 N3          3.7190   -1.0102    4.1207 N.2       1 MOL        -0.3947
     20 C15         4.0702   -1.5186    2.9374 C.2       1 MOL         0.3773
     21 C16         5.2721   -2.2471    2.7384 C.2       1 MOL        -0.1776
     22 C17         6.2213   -2.5307    3.6913 C.2       1 MOL        -0.1980
     23 C18         7.4594   -3.3037    3.4886 C.ar      1 MOL         0.4459
     24 C19         7.5007   -4.3063    2.5332 C.ar      1 MOL        -0.2368
     25 C20         8.6909   -5.0081    2.3775 C.ar      1 MOL        -0.0928
     26 C21         9.7878   -4.6902    3.1706 C.ar      1 MOL        -0.2453
     27 C22         9.6442   -3.6702    4.0973 C.ar      1 MOL         0.3986
     28 N4          8.5042   -2.9662    4.2774 N.ar      1 MOL        -0.6566
     29 H1         -1.4069   -0.1122    3.6031 H         1 MOL         0.0431
     30 H2         -2.0818   -1.7179    3.9581 H         1 MOL         0.0431
     31 H3         -3.1681   -0.3382    3.6868 H         1 MOL         0.0431
     32 H4         -2.8058   -0.5107    1.3527 H         1 MOL         0.3101
     33 H5         -2.5131   -4.2949    0.1691 H         1 MOL         0.1410
     34 H6         -2.7340   -4.6407   -2.2659 H         1 MOL         0.1378
     35 H7         -2.0117   -2.8712   -3.8472 H         1 MOL         0.1360
     36 H8         -1.0686   -0.7600   -3.0024 H         1 MOL         0.1467
     37 H9          1.7598   -1.3008   -1.1806 H         1 MOL         0.1544
     38 H10         3.7515   -2.1056    0.0213 H         1 MOL         0.1449
     39 H11         0.2325    0.5123    2.4465 H         1 MOL         0.1523
     40 H12         2.0676    0.0523    4.6279 H         1 MOL         0.4865
     41 H13         5.4618   -2.6595    1.7240 H         1 MOL         0.1330
     42 H14         6.0533   -2.1891    4.7098 H         1 MOL         0.1617
     43 H15         6.6404   -4.5489    1.9176 H         1 MOL         0.1438
     44 H16         8.7644   -5.8007    1.6388 H         1 MOL         0.1387
     45 H17        10.7251   -5.2245    3.0666 H         1 MOL         0.1440
     46 H18        10.4694   -3.3844    4.7413 H         1 MOL         0.0235
@<TRIPOS>BOND
     1    1    2 1
     2    2    3 am
     3    3    4 2
     4    3    5 1
     5    5   10 ar
     6    5    6 ar
     7    6    7 ar
     8    7    8 ar
     9    8    9 ar
    10    9   10 ar
    11   10   11 1
    12   11   12 1
    13   12   17 ar
    14   12   13 ar
    15   13   14 ar
    16   14   15 ar
    17   15   20 1
    18   15   16 ar
    19   16   17 ar
    20   16   18 1
    21   18   19 1
    22   19   20 2
    23   20   21 1
    24   21   22 2
    25   22   23 1
    26   23   28 ar
    27   23   24 ar
    28   24   25 ar
    29   25   26 ar
    30   26   27 ar
    31   27   28 ar
    32    1   29 1
    33    1   30 1
    34    1   31 1
    35    2   32 1
    36    6   33 1
    37    7   34 1
    38    8   35 1
    39    9   36 1
    40   13   37 1
    41   14   38 1
    42   17   39 1
    43   18   40 1
    44   21   41 1
    45   22   42 1
    46   24   43 1
    47   25   44 1
    48   26   45 1
    49   27   46 1
@<TRIPOS>MOLECULE
~{N}-methyl-2-[[3-[(~{E})-2-(2-pyridyl)vinyl]-1~{H}-indazol-6-yl]sulfanyl]benzamide
   46    49     0     0     0
SMALL
USER_CHARGES

@<TRIPOS>ATOM
      1 C1          2.4959    0.6941   -3.2085 C.3       1 MOL         0.0802
      2 N1          1.4999    1.4006   -2.4355 N.am      1 MOL        -0.5743
      3 C2          1.8060    2.0617   -1.2566 C.2       1 MOL         0.6672
      4 O1          2.9248    2.1187   -0.7530 O.2       1 MOL        -0.5832
      5 C3          0.6860    2.7055   -0.5793 C.ar      1 MOL        -0.1328
      6 C4          0.7526    4.0854   -0.3861 C.ar      1 MOL        -0.0937
      7 C5         -0.2921    4.7511    0.2550 C.ar      1 MOL        -0.1467
      8 C6         -1.4034    4.0370    0.7030 C.ar      1 MOL        -0.0974
      9 C7         -1.4700    2.6571    0.5098 C.ar      1 MOL        -0.1577
     10 C8         -0.4253    1.9914   -0.1313 C.ar      1 MOL         0.0287
     11 S1         -0.5618    0.2240   -0.3504 S.3       1 MOL        -0.0864
     12 C9          0.8725   -0.3471    0.5479 C.ar      1 MOL        -0.0352
     13 C10         1.8575   -1.0770   -0.1202 C.ar      1 MOL        -0.1080
     14 C11         2.9942   -1.5392    0.5550 C.ar      1 MOL        -0.0801
     15 C12         3.1242   -1.2526    1.9242 C.ar      1 MOL        -0.1729
     16 C13         2.1285   -0.5238    2.5651 C.ar      1 MOL         0.0545
     17 C14         0.9878   -0.0537    1.9107 C.ar      1 MOL        -0.0801
     18 N2          2.5420   -0.4150    3.8654 N.pl3     1 MOL        -0.3860
     19 N3          3.7190   -1.0102    4.1207 N.2       1 MOL        -0.3947
     20 C15         4.0702   -1.5186    2.9374 C.2       1 MOL         0.3773
     21 C16         5.2721   -2.2471    2.7384 C.2       1 MOL        -0.1776
     22 C17         6.2213   -2.5307    3.6913 C.2       1 MOL        -0.1980
     23 C18         7.4594   -3.3037    3.4886 C.ar      1 MOL         0.4459
     24 C19         7.5007   -4.3063    2.5332 C.ar      1 MOL        -0.2368
     25 C20         8.6909   -5.0081    2.3775 C.ar      1 MOL        -0.0928
     26 C21         9.7878   -4.6902    3.1706 C.ar      1 MOL        -0.2453
     27 C22         9.6442   -3.6702    4.0973 C.ar      1 MOL         0.3986
     28 N4          8.5042   -2.9662    4.2774 N.ar      1 MOL        -0.6566
     29 H1          2.5594   -0.3460   -2.8784 H         1 MOL         0.0431
     30 H2          3.4752    1.1637   -3.0825 H         1 MOL         0.0431
     31 H3          2.2330    0.7112   -4.2696 H         1 MOL         0.0431
     32 H4          0.5413    1.4131   -2.7682 H         1 MOL         0.3101
     33 H5          1.6132    4.6539   -0.7299 H         1 MOL         0.1410
     34 H6         -0.2400    5.8256    0.4061 H         1 MOL         0.1378
     35 H7         -2.2168    4.5556    1.2017 H         1 MOL         0.1360
     36 H8         -2.3453    2.1201    0.8670 H         1 MOL         0.1467
     37 H9          1.7598   -1.3008   -1.1806 H         1 MOL         0.1544
     38 H10         3.7515   -2.1056    0.0213 H         1 MOL         0.1449
     39 H11         0.2325    0.5123    2.4465 H         1 MOL         0.1523
     40 H12         2.0676    0.0523    4.6279 H         1 MOL         0.4865
     41 H13         5.4618   -2.6595    1.7240 H         1 MOL         0.1330
     42 H14         6.0533   -2.1891    4.7098 H         1 MOL         0.1617
     43 H15         6.6404   -4.5489    1.9176 H         1 MOL         0.1438
     44 H16         8.7644   -5.8007    1.6388 H         1 MOL         0.1387
     45 H17        10.7251   -5.2245    3.0666 H         1 MOL         0.1440
     46 H18        10.4694   -3.3844    4.7413 H         1 MOL         0.0235
@<TRIPOS>BOND
     1    1    2 1
     2    2    3 am
     3    3    4 2
     4    3    5 1
     5    5   10 ar
     6    5    6 ar
     7    6    7 ar
     8    7    8 ar
     9    8    9 ar
    10    9   10 ar
    11   10   11 1
    12   11   12 1
    13   12   17 ar
    14   12   13 ar
    15   13   14 ar
    16   14   15 ar
    17   15   20 1
    18   15   16 ar
    19   16   17 ar
    20   16   18 1
    21   18   19 1
    22   19   20 2
    23   20   21 1
    24   21   22 2
    25   22   23 1
    26   23   28 ar
    27   23   24 ar
    28   24   25 ar
    29   25   26 ar
    30   26   27 ar
    31   27   28 ar
    32    1   29 1
    33    1   30 1
    34    1   31 1
    35    2   32 1
    36    6   33 1
    37    7   34 1
    38    8   35 1
    39    9   36 1
    40   13   37 1
    41   14   38 1
    42   17   39 1
    43   18   40 1
    44   21   41 1
    45   22   42 1
    46   24   43 1
    47   25   44 1
    48   26   45 1
    49   27   46 1
@<TRIPOS>MOLECULE
~{N}-methyl-2-[[3-[(~{E})-2-(2-pyridyl)vinyl]-1~{H}-indazol-6-yl]sulfanyl]benzamide
   46    49     0     0     0
SMALL
USER_CHARGES

@<TRIPOS>ATOM
      1 C1         -4.9855    1.4902    0.5104 C.3       1 MOL         0.0802
      2 N1         -3.7056    2.0469    0.1352 N.am      1 MOL        -0.5743
      3 C2         -2.6410    2.1231    1.0191 C.2       1 MOL         0.6672
      4 O1         -2.6665    1.7373    2.1849 O.2       1 MOL        -0.5832
      5 C3         -1.4239    2.7350    0.4975 C.ar      1 MOL        -0.1328
      6 C4         -1.2774    4.1142    0.6464 C.ar      1 MOL        -0.0937
      7 C5         -0.1322    4.7497    0.1666 C.ar      1 MOL        -0.1467
      8 C6          0.8665    4.0061   -0.4621 C.ar      1 MOL        -0.0974
      9 C7          0.7200    2.6269   -0.6110 C.ar      1 MOL        -0.1577
     10 C8         -0.4253    1.9914   -0.1313 C.ar      1 MOL         0.0287
     11 S1         -0.5618    0.2240   -0.3504 S.3       1 MOL        -0.0864
     12 C9          0.8725   -0.3471    0.5479 C.ar      1 MOL        -0.0352
     13 C10         1.8575   -1.0770   -0.1202 C.ar      1 MOL        -0.1080
     14 C11         2.9942   -1.5392    0.5550 C.ar      1 MOL        -0.0801
     15 C12         3.1242   -1.2526    1.9242 C.ar      1 MOL        -0.1729
     16 C13         2.1285   -0.5238    2.5651 C.ar      1 MOL         0.0545
     17 C14         0.9878   -0.0537    1.9107 C.ar      1 MOL        -0.0801
     18 N2          2.5420   -0.4150    3.8654 N.pl3     1 MOL        -0.3860
     19 N3          3.7190   -1.0102    4.1207 N.2       1 MOL        -0.3947
     20 C15         4.0702   -1.5186    2.9374 C.2       1 MOL         0.3773
     21 C16         5.2721   -2.2471    2.7384 C.2       1 MOL        -0.1776
     22 C17         6.0033   -2.3127    1.5763 C.2       1 MOL        -0.1980
     23 C18         7.2613   -3.0535    1.3759 C.ar      1 MOL         0.4459
     24 C19         7.8906   -3.0273    0.1417 C.ar      1 MOL        -0.2368
     25 C20         9.0756   -3.7409    0.0003 C.ar      1 MOL        -0.0928
     26 C21         9.5877   -4.4486    1.0820 C.ar      1 MOL        -0.2453
     27 C22         8.8825   -4.4110    2.2741 C.ar      1 MOL         0.3986
     28 N4          7.7284   -3.7292    2.4495 N.ar      1 MOL        -0.6566
     29 H1         -5.6343    2.2747    0.9085 H         1 MOL         0.0431
     30 H2         -4.8532    0.7208    1.2759 H         1 MOL         0.0431
     31 H3         -5.4712    1.0395   -0.3592 H         1 MOL         0.0431
     32 H4         -3.5820    2.3947   -0.8100 H         1 MOL         0.3101
     33 H5         -2.0484    4.7057    1.1341 H         1 MOL         0.1410
     34 H6         -0.0183    5.8238    0.2821 H         1 MOL         0.1378
     35 H7          1.7582    4.5011   -0.8351 H         1 MOL         0.1360
     36 H8          1.5105    2.0666   -1.1043 H         1 MOL         0.1467
     37 H9          1.7598   -1.3008   -1.1806 H         1 MOL         0.1544
     38 H10         3.7515   -2.1056    0.0213 H         1 MOL         0.1449
     39 H11         0.2325    0.5123    2.4465 H         1 MOL         0.1523
     40 H12         2.0676    0.0523    4.6279 H         1 MOL         0.4865
     41 H13         5.6893   -2.7988    3.6082 H         1 MOL         0.1330
     42 H14         5.6588   -1.7483    0.7131 H         1 MOL         0.1617
     43 H15         7.4849   -2.4724   -0.6982 H         1 MOL         0.1438
     44 H16         9.6000   -3.7448   -0.9506 H         1 MOL         0.1387
     45 H17        10.5094   -5.0121    0.9942 H         1 MOL         0.1440
     46 H18         9.2386   -4.9474    3.1475 H         1 MOL         0.0235
@<TRIPOS>BOND
     1    1    2 1
     2    2    3 am
     3    3    4 2
     4    3    5 1
     5    5   10 ar
     6    5    6 ar
     7    6    7 ar
     8    7    8 ar
     9    8    9 ar
    10    9   10 ar
    11   10   11 1
    12   11   12 1
    13   12   17 ar
    14   12   13 ar
    15   13   14 ar
    16   14   15 ar
    17   15   20 1
    18   15   16 ar
    19   16   17 ar
    20   16   18 1
    21   18   19 1
    22   19   20 2
    23   20   21 1
    24   21   22 2
    25   22   23 1
    26   23   28 ar
    27   23   24 ar
    28   24   25 ar
    29   25   26 ar
    30   26   27 ar
    31   27   28 ar
    32    1   29 1
    33    1   30 1
    34    1   31 1
    35    2   32 1
    36    6   33 1
    37    7   34 1
    38    8   35 1
    39    9   36 1
    40   13   37 1
    41   14   38 1
    42   17   39 1
    43   18   40 1
    44   21   41 1
    45   22   42 1
    46   24   43 1
    47   25   44 1
    48   26   45 1
    49   27   46 1
@<TRIPOS>MOLECULE
~{N}-methyl-2-[[3-[(~{E})-2-(2-pyridyl)vinyl]-1~{H}-indazol-6-yl]sulfanyl]benzamide
   46    49     0     0     0
SMALL
USER_CHARGES

@<TRIPOS>ATOM
      1 C1         -3.0560    2.2236    2.3919 C.3       1 MOL         0.0802
      2 N1         -2.9672    1.0823    1.5096 N.am      1 MOL        -0.5743
      3 C2         -2.6314   -0.1832    1.9638 C.2       1 MOL         0.6672
      4 O1         -2.3794   -0.4666    3.1320 O.2       1 MOL        -0.5832
      5 C3         -2.5582   -1.2255    0.9460 C.ar      1 MOL        -0.1328
      6 C4         -3.4112   -2.3212    1.0786 C.ar      1 MOL        -0.0937
      7 C5         -3.3829   -3.3456    0.1323 C.ar      1 MOL        -0.1467
      8 C6         -2.5016   -3.2743   -0.9465 C.ar      1 MOL        -0.0974
      9 C7         -1.6486   -2.1786   -1.0791 C.ar      1 MOL        -0.1577
     10 C8         -1.6769   -1.1542   -0.1328 C.ar      1 MOL         0.0287
     11 S1         -0.5618    0.2240   -0.3504 S.3       1 MOL        -0.0864
     12 C9          0.8725   -0.3471    0.5479 C.ar      1 MOL        -0.0352
     13 C10         1.8575   -1.0770   -0.1202 C.ar      1 MOL        -0.1080
     14 C11         2.9942   -1.5392    0.5550 C.ar      1 MOL        -0.0801
     15 C12         3.1242   -1.2526    1.9242 C.ar      1 MOL        -0.1729
     16 C13         2.1285   -0.5238    2.5651 C.ar      1 MOL         0.0545
     17 C14         0.9878   -0.0537    1.9107 C.ar      1 MOL        -0.0801
     18 N2          2.5420   -0.4150    3.8654 N.pl3     1 MOL        -0.3860
     19 N3          3.7190   -1.0102    4.1207 N.2       1 MOL        -0.3947
     20 C15         4.0702   -1.5186    2.9374 C.2       1 MOL         0.3773
     21 C16         5.2721   -2.2471    2.7384 C.2       1 MOL        -0.1776
     22 C17         5.4745   -3.2526    1.8233 C.2       1 MOL        -0.1980
     23 C18         6.7281   -3.9953    1.6038 C.ar      1 MOL         0.4459
     24 C19         6.7843   -4.9885    0.6393 C.ar      1 MOL        -0.2368
     25 C20         7.9887   -5.6616    0.4678 C.ar      1 MOL        -0.0928
     26 C21         9.0847   -5.3257    1.2548 C.ar      1 MOL        -0.2453
     27 C22         8.9256   -4.3173    2.1916 C.ar      1 MOL         0.3986
     28 N4          7.7715   -3.6411    2.3871 N.ar      1 MOL        -0.6566
     29 H1         -2.0866    2.7246    2.4567 H         1 MOL         0.0431
     30 H2         -3.3548    1.9044    3.3940 H         1 MOL         0.0431
     31 H3         -3.7956    2.9355    2.0157 H         1 MOL         0.0431
     32 H4         -3.1578    1.2123    0.5214 H         1 MOL         0.3101
     33 H5         -4.1026   -2.3894    1.9149 H         1 MOL         0.1410
     34 H6         -4.0467   -4.1992    0.2358 H         1 MOL         0.1378
     35 H7         -2.4801   -4.0718   -1.6833 H         1 MOL         0.1360
     36 H8         -0.9695   -2.1434   -1.9275 H         1 MOL         0.1467
     37 H9          1.7598   -1.3008   -1.1806 H         1 MOL         0.1544
     38 H10         3.7515   -2.1056    0.0213 H         1 MOL         0.1449
     39 H11         0.2325    0.5123    2.4465 H         1 MOL         0.1523
     40 H12         2.0676    0.0523    4.6279 H         1 MOL         0.4865
     41 H13         6.1521   -1.9665    3.3564 H         1 MOL         0.1330
     42 H14         4.6552   -3.5270    1.1632 H         1 MOL         0.1617
     43 H15         5.9246   -5.2452    0.0285 H         1 MOL         0.1438
     44 H16         8.0741   -6.4459   -0.2784 H         1 MOL         0.1387
     45 H17        10.0329   -5.8376    1.1386 H         1 MOL         0.1440
     46 H18         9.7494   -4.0184    2.8315 H         1 MOL         0.0235
@<TRIPOS>BOND
     1    1    2 1
     2    2    3 am
     3    3    4 2
     4    3    5 1
     5    5   10 ar
     6    5    6 ar
     7    6    7 ar
     8    7    8 ar
     9    8    9 ar
    10    9   10 ar
    11   10   11 1
    12   11   12 1
    13   12   17 ar
    14   12   13 ar
    15   13   14 ar
    16   14   15 ar
    17   15   20 1
    18   15   16 ar
    19   16   17 ar
    20   16   18 1
    21   18   19 1
    22   19   20 2
    23   20   21 1
    24   21   22 2
    25   22   23 1
    26   23   28 ar
    27   23   24 ar
    28   24   25 ar
    29   25   26 ar
    30   26   27 ar
    31   27   28 ar
    32    1   29 1
    33    1   30 1
    34    1   31 1
    35    2   32 1
    36    6   33 1
    37    7   34 1
    38    8   35 1
    39    9   36 1
    40   13   37 1
    41   14   38 1
    42   17   39 1
    43   18   40 1
    44   21   41 1
    45   22   42 1
    46   24   43 1
    47   25   44 1
    48   26   45 1
    49   27   46 1
@<TRIPOS>MOLECULE
~{N}-methyl-2-[[3-[(~{E})-2-(2-pyridyl)vinyl]-1~{H}-indazol-6-yl]sulfanyl]benzamide
   46    49     0     0     0
SMALL
USER_CHARGES

@<TRIPOS>ATOM
      1 C1         -1.4197    1.6003   -4.2657 C.3       1 MOL         0.0802
      2 N1         -1.6731    0.5692   -3.2853 N.am      1 MOL        -0.5743
      3 C2         -1.0329   -0.6595   -3.3173 C.2       1 MOL         0.6672
      4 O1         -0.2038   -0.9983   -4.1577 O.2       1 MOL        -0.5832
      5 C3         -1.4160   -1.6035   -2.2733 C.ar      1 MOL        -0.1328
      6 C4         -1.9615   -2.8238   -2.6721 C.ar      1 MOL        -0.0937
      7 C5         -2.3437   -3.7632   -1.7144 C.ar      1 MOL        -0.1467
      8 C6         -2.1804   -3.4823   -0.3579 C.ar      1 MOL        -0.0974
      9 C7         -1.6350   -2.2619    0.0408 C.ar      1 MOL        -0.1577
     10 C8         -1.2528   -1.3226   -0.9169 C.ar      1 MOL         0.0287
     11 S1         -0.5618    0.2240   -0.3504 S.3       1 MOL        -0.0864
     12 C9          0.8725   -0.3471    0.5479 C.ar      1 MOL        -0.0352
     13 C10         1.8575   -1.0770   -0.1202 C.ar      1 MOL        -0.1080
     14 C11         2.9942   -1.5392    0.5550 C.ar      1 MOL        -0.0801
     15 C12         3.1242   -1.2526    1.9242 C.ar      1 MOL        -0.1729
     16 C13         2.1285   -0.5238    2.5651 C.ar      1 MOL         0.0545
     17 C14         0.9878   -0.0537    1.9107 C.ar      1 MOL        -0.0801
     18 N2          2.5420   -0.4150    3.8654 N.pl3     1 MOL        -0.3860
     19 N3          3.7190   -1.0102    4.1207 N.2       1 MOL        -0.3947
     20 C15         4.0702   -1.5186    2.9374 C.2       1 MOL         0.3773
     21 C16         5.2721   -2.2471    2.7384 C.2       1 MOL        -0.1776
     22 C17         5.3756   -3.5472    2.3043 C.2       1 MOL        -0.1980
     23 C18         6.6241   -4.2968    2.0793 C.ar      1 MOL         0.4459
     24 C19         6.5734   -5.6089    1.6371 C.ar      1 MOL        -0.2368
     25 C20         7.7773   -6.2756    1.4384 C.ar      1 MOL        -0.0928
     26 C21         8.9780   -5.6190    1.6844 C.ar      1 MOL        -0.2453
     27 C22         8.9211   -4.3064    2.1243 C.ar      1 MOL         0.3986
     28 N4          7.7710   -3.6259    2.3289 N.ar      1 MOL        -0.6566
     29 H1         -2.1051    1.4923   -5.1103 H         1 MOL         0.0431
     30 H2         -0.3929    1.5273   -4.6343 H         1 MOL         0.0431
     31 H3         -1.5628    2.5886   -3.8205 H         1 MOL         0.0431
     32 H4         -2.3443    0.7515   -2.5464 H         1 MOL         0.3101
     33 H5         -2.0946   -3.0553   -3.7261 H         1 MOL         0.1410
     34 H6         -2.7690   -4.7133   -2.0249 H         1 MOL         0.1378
     35 H7         -2.4776   -4.2139    0.3874 H         1 MOL         0.1360
     36 H8         -1.5167   -2.0635    1.1033 H         1 MOL         0.1467
     37 H9          1.7598   -1.3008   -1.1806 H         1 MOL         0.1544
     38 H10         3.7515   -2.1056    0.0213 H         1 MOL         0.1449
     39 H11         0.2325    0.5123    2.4465 H         1 MOL         0.1523
     40 H12         2.0676    0.0523    4.6279 H         1 MOL         0.4865
     41 H13         6.2315   -1.7162    2.9193 H         1 MOL         0.1330
     42 H14         4.4637   -4.0901    2.0677 H         1 MOL         0.1617
     43 H15         5.6323   -6.1150    1.4470 H         1 MOL         0.1438
     44 H16         7.7804   -7.3046    1.0914 H         1 MOL         0.1387
     45 H17         9.9280   -6.1195    1.5368 H         1 MOL         0.1440
     46 H18         9.8293   -3.7501    2.3320 H         1 MOL         0.0235
@<TRIPOS>BOND
     1    1    2 1
     2    2    3 am
     3    3    4 2
     4    3    5 1
     5    5   10 ar
     6    5    6 ar
     7    6    7 ar
     8    7    8 ar
     9    8    9 ar
    10    9   10 ar
    11   10   11 1
    12   11   12 1
    13   12   17 ar
    14   12   13 ar
    15   13   14 ar
    16   14   15 ar
    17   15   20 1
    18   15   16 ar
    19   16   17 ar
    20   16   18 1
    21   18   19 1
    22   19   20 2
    23   20   21 1
    24   21   22 2
    25   22   23 1
    26   23   28 ar
    27   23   24 ar
    28   24   25 ar
    29   25   26 ar
    30   26   27 ar
    31   27   28 ar
    32    1   29 1
    33    1   30 1
    34    1   31 1
    35    2   32 1
    36    6   33 1
    37    7   34 1
    38    8   35 1
    39    9   36 1
    40   13   37 1
    41   14   38 1
    42   17   39 1
    43   18   40 1
    44   21   41 1
    45   22   42 1
    46   24   43 1
    47   25   44 1
    48   26   45 1
    49   27   46 1
@<TRIPOS>MOLECULE
~{N}-methyl-2-[[3-[(~{E})-2-(2-pyridyl)vinyl]-1~{H}-indazol-6-yl]sulfanyl]benzamide
   46    49     0     0     0
SMALL
USER_CHARGES

@<TRIPOS>ATOM
      1 C1          1.6949    4.6791    0.5939 C.3       1 MOL         0.0802
      2 N1          0.6952    3.8239    1.1922 N.am      1 MOL        -0.5743
      3 C2         -0.3220    3.2409    0.4533 C.2       1 MOL         0.6672
      4 O1         -0.4818    3.3823   -0.7562 O.2       1 MOL        -0.5832
      5 C3         -1.2679    2.4250    1.2066 C.ar      1 MOL        -0.1328
      6 C4         -1.9917    3.0462    2.2244 C.ar      1 MOL        -0.0937
      7 C5         -2.9104    2.3122    2.9748 C.ar      1 MOL        -0.1467
      8 C6         -3.1052    0.9572    2.7074 C.ar      1 MOL        -0.0974
      9 C7         -2.3813    0.3361    1.6896 C.ar      1 MOL        -0.1577
     10 C8         -1.4627    1.0700    0.9392 C.ar      1 MOL         0.0287
     11 S1         -0.5618    0.2240   -0.3504 S.3       1 MOL        -0.0864
     12 C9          0.8725   -0.3471    0.5479 C.ar      1 MOL        -0.0352
     13 C10         1.8575   -1.0770   -0.1202 C.ar      1 MOL        -0.1080
     14 C11         2.9942   -1.5392    0.5550 C.ar      1 MOL        -0.0801
     15 C12         3.1242   -1.2526    1.9242 C.ar      1 MOL        -0.1729
     16 C13         2.1285   -0.5238    2.5651 C.ar      1 MOL         0.0545
     17 C14         0.9878   -0.0537    1.9107 C.ar      1 MOL        -0.0801
     18 N2          2.5420   -0.4150    3.8654 N.pl3     1 MOL        -0.3860
     19 N3          3.7190   -1.0102    4.1207 N.2       1 MOL        -0.3947
     20 C15         4.0702   -1.5186    2.9374 C.2       1 MOL         0.3773
     21 C16         5.2721   -2.2471    2.7384 C.2       1 MOL        -0.1776
     22 C17         6.2213   -2.5307    3.6913 C.2       1 MOL        -0.1980
     23 C18         7.4594   -3.3037    3.4886 C.ar      1 MOL         0.4459
     24 C19         8.3270   -3.5111    4.5488 C.ar      1 MOL        -0.2368
     25 C20         9.4824   -4.2469    4.3098 C.ar      1 MOL        -0.0928
     26 C21         9.7311   -4.7458    3.0360 C.ar      1 MOL        -0.2453
     27 C22         8.8006   -4.4832    2.0435 C.ar      1 MOL         0.3986
     28 N4          7.6671   -3.7725    2.2377 N.ar      1 MOL        -0.6566
     29 H1          1.3594    5.7193    0.6126 H         1 MOL         0.0431
     30 H2          1.8716    4.3850   -0.4443 H         1 MOL         0.0431
     31 H3          2.6362    4.6029    1.1448 H         1 MOL         0.0431
     32 H4          0.7398    3.6437    2.1898 H         1 MOL         0.3101
     33 H5         -1.8492    4.1015    2.4436 H         1 MOL         0.1410
     34 H6         -3.4736    2.7958    3.7678 H         1 MOL         0.1378
     35 H7         -3.8207    0.3862    3.2914 H         1 MOL         0.1360
     36 H8         -2.5487   -0.7211    1.4981 H         1 MOL         0.1467
     37 H9          1.7598   -1.3008   -1.1806 H         1 MOL         0.1544
     38 H10         3.7515   -2.1056    0.0213 H         1 MOL         0.1449
     39 H11         0.2325    0.5123    2.4465 H         1 MOL         0.1523
     40 H12         2.0676    0.0523    4.6279 H         1 MOL         0.4865
     41 H13         5.4618   -2.6595    1.7240 H         1 MOL         0.1330
     42 H14         6.0533   -2.1891    4.7098 H         1 MOL         0.1617
     43 H15         8.1262   -3.1187    5.5406 H         1 MOL         0.1438
     44 H16        10.1874   -4.4325    5.1146 H         1 MOL         0.1387
     45 H17        10.6254   -5.3213    2.8270 H         1 MOL         0.1440
     46 H18         8.9483   -4.8486    1.0326 H         1 MOL         0.0235
@<TRIPOS>BOND
     1    1    2 1
     2    2    3 am
     3    3    4 2
     4    3    5 1
     5    5   10 ar
     6    5    6 ar
     7    6    7 ar
     8    7    8 ar
     9    8    9 ar
    10    9   10 ar
    11   10   11 1
    12   11   12 1
    13   12   17 ar
    14   12   13 ar
    15   13   14 ar
    16   14   15 ar
    17   15   20 1
    18   15   16 ar
    19   16   17 ar
    20   16   18 1
    21   18   19 1
    22   19   20 2
    23   20   21 1
    24   21   22 2
    25   22   23 1
    26   23   28 ar
    27   23   24 ar
    28   24   25 ar
    29   25   26 ar
    30   26   27 ar
    31   27   28 ar
    32    1   29 1
    33    1   30 1
    34    1   31 1
    35    2   32 1
    36    6   33 1
    37    7   34 1
    38    8   35 1
    39    9   36 1
    40   13   37 1
    41   14   38 1
    42   17   39 1
    43   18   40 1
    44   21   41 1
    45   22   42 1
    46   24   43 1
    47   25   44 1
    48   26   45 1
    49   27   46 1
@<TRIPOS>MOLECULE
~{N}-methyl-2-[[3-[(~{E})-2-(2-pyridyl)vinyl]-1~{H}-indazol-6-yl]sulfanyl]benzamide
   46    49     0     0     0
SMALL
USER_CHARGES

@<TRIPOS>ATOM
      1 C1         -4.7410   -0.4757   -0.2827 C.3       1 MOL         0.0802
      2 N1         -3.6961    0.5052   -0.0960 N.am      1 MOL        -0.5743
      3 C2         -3.2298    0.8639    1.1587 C.2       1 MOL         0.6672
      4 O1         -3.6407    0.4017    2.2198 O.2       1 MOL        -0.5832
      5 C3         -2.1904    1.8872    1.1822 C.ar      1 MOL        -0.1328
      6 C4         -2.4608    3.0692    1.8716 C.ar      1 MOL        -0.0937
      7 C5         -1.5010    4.0799    1.9264 C.ar      1 MOL        -0.1467
      8 C6         -0.2708    3.9085    1.2917 C.ar      1 MOL        -0.0974
      9 C7         -0.0004    2.7264    0.6023 C.ar      1 MOL        -0.1577
     10 C8         -0.9602    1.7158    0.5475 C.ar      1 MOL         0.0287
     11 S1         -0.5618    0.2240   -0.3504 S.3       1 MOL        -0.0864
     12 C9          0.8725   -0.3471    0.5479 C.ar      1 MOL        -0.0352
     13 C10         1.8575   -1.0770   -0.1202 C.ar      1 MOL        -0.1080
     14 C11         2.9942   -1.5392    0.5550 C.ar      1 MOL        -0.0801
     15 C12         3.1242   -1.2526    1.9242 C.ar      1 MOL        -0.1729
     16 C13         2.1285   -0.5238    2.5651 C.ar      1 MOL         0.0545
     17 C14         0.9878   -0.0537    1.9107 C.ar      1 MOL        -0.0801
     18 N2          2.5420   -0.4150    3.8654 N.pl3     1 MOL        -0.3860
     19 N3          3.7190   -1.0102    4.1207 N.2       1 MOL        -0.3947
     20 C15         4.0702   -1.5186    2.9374 C.2       1 MOL         0.3773
     21 C16         5.2721   -2.2471    2.7384 C.2       1 MOL        -0.1776
     22 C17         6.2213   -2.5307    3.6913 C.2       1 MOL        -0.1980
     23 C18         7.4594   -3.3037    3.4886 C.ar      1 MOL         0.4459
     24 C19         7.5007   -4.3063    2.5332 C.ar      1 MOL        -0.2368
     25 C20         8.6909   -5.0081    2.3775 C.ar      1 MOL        -0.0928
     26 C21         9.7878   -4.6902    3.1706 C.ar      1 MOL        -0.2453
     27 C22         9.6442   -3.6702    4.0973 C.ar      1 MOL         0.3986
     28 N4          8.5042   -2.9662    4.2774 N.ar      1 MOL        -0.6566
     29 H1         -5.7191    0.0124   -0.2811 H         1 MOL         0.0431
     30 H2         -4.7148   -1.2139    0.5234 H         1 MOL         0.0431
     31 H3         -4.6075   -0.9933   -1.2364 H         1 MOL         0.0431
     32 H4         -3.2890    0.9474   -0.9136 H         1 MOL         0.3101
     33 H5         -3.4158    3.2159    2.3702 H         1 MOL         0.1410
     34 H6         -1.7118    5.0007    2.4627 H         1 MOL         0.1378
     35 H7          0.4764    4.6953    1.3349 H         1 MOL         0.1360
     36 H8          0.9649    2.6138    0.1147 H         1 MOL         0.1467
     37 H9          1.7598   -1.3008   -1.1806 H         1 MOL         0.1544
     38 H10         3.7515   -2.1056    0.0213 H         1 MOL         0.1449
     39 H11         0.2325    0.5123    2.4465 H         1 MOL         0.1523
     40 H12         2.0676    0.0523    4.6279 H         1 MOL         0.4865
     41 H13         5.4618   -2.6595    1.7240 H         1 MOL         0.1330
     42 H14         6.0533   -2.1891    4.7098 H         1 MOL         0.1617
     43 H15         6.6404   -4.5489    1.9176 H         1 MOL         0.1438
     44 H16         8.7644   -5.8007    1.6388 H         1 MOL         0.1387
     45 H17        10.7251   -5.2245    3.0666 H         1 MOL         0.1440
     46 H18        10.4694   -3.3844    4.7413 H         1 MOL         0.0235
@<TRIPOS>BOND
     1    1    2 1
     2    2    3 am
     3    3    4 2
     4    3    5 1
     5    5   10 ar
     6    5    6 ar
     7    6    7 ar
     8    7    8 ar
     9    8    9 ar
    10    9   10 ar
    11   10   11 1
    12   11   12 1
    13   12   17 ar
    14   12   13 ar
    15   13   14 ar
    16   14   15 ar
    17   15   20 1
    18   15   16 ar
    19   16   17 ar
    20   16   18 1
    21   18   19 1
    22   19   20 2
    23   20   21 1
    24   21   22 2
    25   22   23 1
    26   23   28 ar
    27   23   24 ar
    28   24   25 ar
    29   25   26 ar
    30   26   27 ar
    31   27   28 ar
    32    1   29 1
    33    1   30 1
    34    1   31 1
    35    2   32 1
    36    6   33 1
    37    7   34 1
    38    8   35 1
    39    9   36 1
    40   13   37 1
    41   14   38 1
    42   17   39 1
    43   18   40 1
    44   21   41 1
    45   22   42 1
    46   24   43 1
    47   25   44 1
    48   26   45 1
    49   27   46 1
@<TRIPOS>MOLECULE
~{N}-methyl-2-[[3-[(~{E})-2-(2-pyridyl)vinyl]-1~{H}-indazol-6-yl]sulfanyl]benzamide
   46    49     0     0     0
SMALL
USER_CHARGES

@<TRIPOS>ATOM
      1 C1         -2.1284   -0.2104   -4.2358 C.3       1 MOL         0.0802
      2 N1         -1.6128    0.7469   -3.2838 N.am      1 MOL        -0.5743
      3 C2         -0.3015    1.1942   -3.3163 C.2       1 MOL         0.6672
      4 O1          0.5428    0.8370   -4.1336 O.2       1 MOL        -0.5832
      5 C3          0.0736    2.1405   -2.2715 C.ar      1 MOL        -0.1328
      6 C4          0.5187    3.4013   -2.6692 C.ar      1 MOL        -0.0937
      7 C5          0.8888    4.3446   -1.7107 C.ar      1 MOL        -0.1467
      8 C6          0.8139    4.0272   -0.3544 C.ar      1 MOL        -0.0974
      9 C7          0.3688    2.7664    0.0432 C.ar      1 MOL        -0.1577
     10 C8         -0.0012    1.8231   -0.9153 C.ar      1 MOL         0.0287
     11 S1         -0.5618    0.2240   -0.3504 S.3       1 MOL        -0.0864
     12 C9          0.8725   -0.3471    0.5479 C.ar      1 MOL        -0.0352
     13 C10         1.8575   -1.0770   -0.1202 C.ar      1 MOL        -0.1080
     14 C11         2.9942   -1.5392    0.5550 C.ar      1 MOL        -0.0801
     15 C12         3.1242   -1.2526    1.9242 C.ar      1 MOL        -0.1729
     16 C13         2.1285   -0.5238    2.5651 C.ar      1 MOL         0.0545
     17 C14         0.9878   -0.0537    1.9107 C.ar      1 MOL        -0.0801
     18 N2          2.5420   -0.4150    3.8654 N.pl3     1 MOL        -0.3860
     19 N3          3.7190   -1.0102    4.1207 N.2       1 MOL        -0.3947
     20 C15         4.0702   -1.5186    2.9374 C.2       1 MOL         0.3773
     21 C16         5.2721   -2.2471    2.7384 C.2       1 MOL        -0.1776
     22 C17         5.3756   -3.5472    2.3043 C.2       1 MOL        -0.1980
     23 C18         6.6241   -4.2968    2.0793 C.ar      1 MOL         0.4459
     24 C19         6.5734   -5.6089    1.6371 C.ar      1 MOL        -0.2368
     25 C20         7.7773   -6.2756    1.4384 C.ar      1 MOL        -0.0928
     26 C21         8.9780   -5.6190    1.6844 C.ar      1 MOL        -0.2453
     27 C22         8.9211   -4.3064    2.1243 C.ar      1 MOL         0.3986
     28 N4          7.7710   -3.6259    2.3289 N.ar      1 MOL        -0.6566
     29 H1         -1.9851   -1.2273   -3.8612 H         1 MOL         0.0431
     30 H2         -1.6073   -0.1109   -5.1919 H         1 MOL         0.0431
     31 H3         -3.1963   -0.0429   -4.3996 H         1 MOL         0.0431
     32 H4         -2.2336    1.1047   -2.5653 H         1 MOL         0.3101
     33 H5          0.5823    3.6615   -3.7229 H         1 MOL         0.1410
     34 H6          1.2359    5.3262   -2.0203 H         1 MOL         0.1378
     35 H7          1.1016    4.7619    0.3915 H         1 MOL         0.1360
     36 H8          0.3183    2.5400    1.1055 H         1 MOL         0.1467
     37 H9          1.7598   -1.3008   -1.1806 H         1 MOL         0.1544
     38 H10         3.7515   -2.1056    0.0213 H         1 MOL         0.1449
     39 H11         0.2325    0.5123    2.4465 H         1 MOL         0.1523
     40 H12         2.0676    0.0523    4.6279 H         1 MOL         0.4865
     41 H13         6.2315   -1.7162    2.9193 H         1 MOL         0.1330
     42 H14         4.4637   -4.0901    2.0677 H         1 MOL         0.1617
     43 H15         5.6323   -6.1150    1.4470 H         1 MOL         0.1438
     44 H16         7.7804   -7.3046    1.0914 H         1 MOL         0.1387
     45 H17         9.9280   -6.1195    1.5368 H         1 MOL         0.1440
     46 H18         9.8293   -3.7501    2.3320 H         1 MOL         0.0235
@<TRIPOS>BOND
     1    1    2 1
     2    2    3 am
     3    3    4 2
     4    3    5 1
     5    5   10 ar
     6    5    6 ar
     7    6    7 ar
     8    7    8 ar
     9    8    9 ar
    10    9   10 ar
    11   10   11 1
    12   11   12 1
    13   12   17 ar
    14   12   13 ar
    15   13   14 ar
    16   14   15 ar
    17   15   20 1
    18   15   16 ar
    19   16   17 ar
    20   16   18 1
    21   18   19 1
    22   19   20 2
    23   20   21 1
    24   21   22 2
    25   22   23 1
    26   23   28 ar
    27   23   24 ar
    28   24   25 ar
    29   25   26 ar
    30   26   27 ar
    31   27   28 ar
    32    1   29 1
    33    1   30 1
    34    1   31 1
    35    2   32 1
    36    6   33 1
    37    7   34 1
    38    8   35 1
    39    9   36 1
    40   13   37 1
    41   14   38 1
    42   17   39 1
    43   18   40 1
    44   21   41 1
    45   22   42 1
    46   24   43 1
    47   25   44 1
    48   26   45 1
    49   27   46 1
@<TRIPOS>MOLECULE
~{N}-methyl-2-[[3-[(~{E})-2-(2-pyridyl)vinyl]-1~{H}-indazol-6-yl]sulfanyl]benzamide
   46    49     0     0     0
SMALL
USER_CHARGES

@<TRIPOS>ATOM
      1 C1         -3.9374    1.1702   -4.0304 C.3       1 MOL         0.0802
      2 N1         -3.5406    0.0690   -3.1826 N.am      1 MOL        -0.5743
      3 C2         -2.2121   -0.2610   -2.9670 C.2       1 MOL         0.6672
      4 O1         -1.2529    0.3284   -3.4580 O.2       1 MOL        -0.5832
      5 C3         -1.9751   -1.4148   -2.1066 C.ar      1 MOL        -0.1328
      6 C4         -2.4989   -2.6428   -2.5111 C.ar      1 MOL        -0.0937
      7 C5         -2.3003   -3.7784   -1.7258 C.ar      1 MOL        -0.1467
      8 C6         -1.5780   -3.6861   -0.5361 C.ar      1 MOL        -0.0974
      9 C7         -1.0543   -2.4582   -0.1317 C.ar      1 MOL        -0.1577
     10 C8         -1.2528   -1.3226   -0.9169 C.ar      1 MOL         0.0287
     11 S1         -0.5618    0.2240   -0.3504 S.3       1 MOL        -0.0864
     12 C9          0.8725   -0.3471    0.5479 C.ar      1 MOL        -0.0352
     13 C10         1.8575   -1.0770   -0.1202 C.ar      1 MOL        -0.1080
     14 C11         2.9942   -1.5392    0.5550 C.ar      1 MOL        -0.0801
     15 C12         3.1242   -1.2526    1.9242 C.ar      1 MOL        -0.1729
     16 C13         2.1285   -0.5238    2.5651 C.ar      1 MOL         0.0545
     17 C14         0.9878   -0.0537    1.9107 C.ar      1 MOL        -0.0801
     18 N2          2.5420   -0.4150    3.8654 N.pl3     1 MOL        -0.3860
     19 N3          3.7190   -1.0102    4.1207 N.2       1 MOL        -0.3947
     20 C15         4.0702   -1.5186    2.9374 C.2       1 MOL         0.3773
     21 C16         5.2721   -2.2471    2.7384 C.2       1 MOL        -0.1776
     22 C17         6.2213   -2.5307    3.6913 C.2       1 MOL        -0.1980
     23 C18         7.4594   -3.3037    3.4886 C.ar      1 MOL         0.4459
     24 C19         8.0853   -3.2962    2.2525 C.ar      1 MOL        -0.2368
     25 C20         9.2513   -4.0400    2.1090 C.ar      1 MOL        -0.0928
     26 C21         9.7487   -4.7581    3.1908 C.ar      1 MOL        -0.2453
     27 C22         9.0485   -4.6999    4.3850 C.ar      1 MOL         0.3986
     28 N4          7.9126   -3.9887    4.5624 N.ar      1 MOL        -0.6566
     29 H1         -4.0662    0.8246   -5.0595 H         1 MOL         0.0431
     30 H2         -3.1743    1.9531   -4.0150 H         1 MOL         0.0431
     31 H3         -4.8823    1.5949   -3.6809 H         1 MOL         0.0431
     32 H4         -4.2613   -0.4827   -2.7287 H         1 MOL         0.3101
     33 H5         -3.0642   -2.7285   -3.4358 H         1 MOL         0.1410
     34 H6         -2.7087   -4.7345   -2.0405 H         1 MOL         0.1378
     35 H7         -1.4233   -4.5705    0.0747 H         1 MOL         0.1360
     36 H8         -0.4945   -2.4088    0.7992 H         1 MOL         0.1467
     37 H9          1.7598   -1.3008   -1.1806 H         1 MOL         0.1544
     38 H10         3.7515   -2.1056    0.0213 H         1 MOL         0.1449
     39 H11         0.2325    0.5123    2.4465 H         1 MOL         0.1523
     40 H12         2.0676    0.0523    4.6279 H         1 MOL         0.4865
     41 H13         5.4618   -2.6595    1.7240 H         1 MOL         0.1330
     42 H14         6.0533   -2.1891    4.7098 H         1 MOL         0.1617
     43 H15         7.6912   -2.7330    1.4125 H         1 MOL         0.1438
     44 H16         9.7725   -4.0594    1.1565 H         1 MOL         0.1387
     45 H17        10.6555   -5.3450    3.1013 H         1 MOL         0.1440
     46 H18         9.3937   -5.2432    5.2585 H         1 MOL         0.0235
@<TRIPOS>BOND
     1    1    2 1
     2    2    3 am
     3    3    4 2
     4    3    5 1
     5    5   10 ar
     6    5    6 ar
     7    6    7 ar
     8    7    8 ar
     9    8    9 ar
    10    9   10 ar
    11   10   11 1
    12   11   12 1
    13   12   17 ar
    14   12   13 ar
    15   13   14 ar
    16   14   15 ar
    17   15   20 1
    18   15   16 ar
    19   16   17 ar
    20   16   18 1
    21   18   19 1
    22   19   20 2
    23   20   21 1
    24   21   22 2
    25   22   23 1
    26   23   28 ar
    27   23   24 ar
    28   24   25 ar
    29   25   26 ar
    30   26   27 ar
    31   27   28 ar
    32    1   29 1
    33    1   30 1
    34    1   31 1
    35    2   32 1
    36    6   33 1
    37    7   34 1
    38    8   35 1
    39    9   36 1
    40   13   37 1
    41   14   38 1
    42   17   39 1
    43   18   40 1
    44   21   41 1
    45   22   42 1
    46   24   43 1
    47   25   44 1
    48   26   45 1
    49   27   46 1
@<TRIPOS>MOLECULE
~{N}-methyl-2-[[3-[(~{E})-2-(2-pyridyl)vinyl]-1~{H}-indazol-6-yl]sulfanyl]benzamide
   46    49     0     0     0
SMALL
USER_CHARGES

@<TRIPOS>ATOM
      1 C1          2.6735   -0.4285   -4.2156 C.3       1 MOL         0.0802
      2 N1          2.2512    0.6278   -3.3241 N.am      1 MOL        -0.5743
      3 C2          0.9172    0.8664   -3.0346 C.2       1 MOL         0.6672
      4 O1         -0.0263    0.2256   -3.4903 O.2       1 MOL        -0.5832
      5 C3          0.6514    1.9854   -2.1373 C.ar      1 MOL        -0.1328
      6 C4          1.0741    3.2524   -2.5394 C.ar      1 MOL        -0.0937
      7 C5          0.8440    4.3572   -1.7195 C.ar      1 MOL        -0.1467
      8 C6          0.1913    4.1949   -0.4975 C.ar      1 MOL        -0.0974
      9 C7         -0.2313    2.9278   -0.0955 C.ar      1 MOL        -0.1577
     10 C8         -0.0012    1.8231   -0.9153 C.ar      1 MOL         0.0287
     11 S1         -0.5618    0.2240   -0.3504 S.3       1 MOL        -0.0864
     12 C9          0.8725   -0.3471    0.5479 C.ar      1 MOL        -0.0352
     13 C10         1.8575   -1.0770   -0.1202 C.ar      1 MOL        -0.1080
     14 C11         2.9942   -1.5392    0.5550 C.ar      1 MOL        -0.0801
     15 C12         3.1242   -1.2526    1.9242 C.ar      1 MOL        -0.1729
     16 C13         2.1285   -0.5238    2.5651 C.ar      1 MOL         0.0545
     17 C14         0.9878   -0.0537    1.9107 C.ar      1 MOL        -0.0801
     18 N2          2.5420   -0.4150    3.8654 N.pl3     1 MOL        -0.3860
     19 N3          3.7190   -1.0102    4.1207 N.2       1 MOL        -0.3947
     20 C15         4.0702   -1.5186    2.9374 C.2       1 MOL         0.3773
     21 C16         5.2721   -2.2471    2.7384 C.2       1 MOL        -0.1776
     22 C17         6.0033   -2.3127    1.5763 C.2       1 MOL        -0.1980
     23 C18         7.2613   -3.0535    1.3759 C.ar      1 MOL         0.4459
     24 C19         7.5066   -4.2092    2.0996 C.ar      1 MOL        -0.2368
     25 C20         8.7070   -4.8744    1.8761 C.ar      1 MOL        -0.0928
     26 C21         9.6123   -4.3707    0.9488 C.ar      1 MOL        -0.2453
     27 C22         9.2726   -3.2079    0.2764 C.ar      1 MOL         0.3986
     28 N4          8.1163   -2.5338    0.4667 N.ar      1 MOL        -0.6566
     29 H1          2.7268   -0.0552   -5.2416 H         1 MOL         0.0431
     30 H2          1.9638   -1.2595   -4.1798 H         1 MOL         0.0431
     31 H3          3.6603   -0.7976   -3.9236 H         1 MOL         0.0431
     32 H4          2.9575    1.2162   -2.8943 H         1 MOL         0.3101
     33 H5          1.5844    3.3928   -3.4892 H         1 MOL         0.1410
     34 H6          1.1737    5.3438   -2.0324 H         1 MOL         0.1378
     35 H7          0.0120    5.0552    0.1403 H         1 MOL         0.1360
     36 H8         -0.7381    2.8240    0.8609 H         1 MOL         0.1467
     37 H9          1.7598   -1.3008   -1.1806 H         1 MOL         0.1544
     38 H10         3.7515   -2.1056    0.0213 H         1 MOL         0.1449
     39 H11         0.2325    0.5123    2.4465 H         1 MOL         0.1523
     40 H12         2.0676    0.0523    4.6279 H         1 MOL         0.4865
     41 H13         5.6893   -2.7988    3.6082 H         1 MOL         0.1330
     42 H14         5.6588   -1.7483    0.7131 H         1 MOL         0.1617
     43 H15         6.7951   -4.5965    2.8219 H         1 MOL         0.1438
     44 H16         8.9365   -5.7844    2.4225 H         1 MOL         0.1387
     45 H17        10.5541   -4.8726    0.7591 H         1 MOL         0.1440
     46 H18         9.9448   -2.7730   -0.4560 H         1 MOL         0.0235
@<TRIPOS>BOND
     1    1    2 1
     2    2    3 am
     3    3    4 2
     4    3    5 1
     5    5   10 ar
     6    5    6 ar
     7    6    7 ar
     8    7    8 ar
     9    8    9 ar
    10    9   10 ar
    11   10   11 1
    12   11   12 1
    13   12   17 ar
    14   12   13 ar
    15   13   14 ar
    16   14   15 ar
    17   15   20 1
    18   15   16 ar
    19   16   17 ar
    20   16   18 1
    21   18   19 1
    22   19   20 2
    23   20   21 1
    24   21   22 2
    25   22   23 1
    26   23   28 ar
    27   23   24 ar
    28   24   25 ar
    29   25   26 ar
    30   26   27 ar
    31   27   28 ar
    32    1   29 1
    33    1   30 1
    34    1   31 1
    35    2   32 1
    36    6   33 1
    37    7   34 1
    38    8   35 1
    39    9   36 1
    40   13   37 1
    41   14   38 1
    42   17   39 1
    43   18   40 1
    44   21   41 1
    45   22   42 1
    46   24   43 1
    47   25   44 1
    48   26   45 1
    49   27   46 1
@<TRIPOS>MOLECULE
~{N}-methyl-2-[[3-[(~{E})-2-(2-pyridyl)vinyl]-1~{H}-indazol-6-yl]sulfanyl]benzamide
   46    49     0     0     0
SMALL
USER_CHARGES

@<TRIPOS>ATOM
      1 C1          3.7077    2.8631    0.4489 C.3       1 MOL         0.0802
      2 N1          2.3371    2.8570    0.9075 N.am      1 MOL        -0.5743
      3 C2          1.2638    2.7381    0.0390 C.2       1 MOL         0.6672
      4 O1          1.3558    2.6279   -1.1809 O.2       1 MOL        -0.5832
      5 C3         -0.0586    2.7747    0.6535 C.ar      1 MOL        -0.1328
      6 C4         -0.4100    3.9213    1.3659 C.ar      1 MOL        -0.0937
      7 C5         -1.6631    4.0090    1.9722 C.ar      1 MOL        -0.1467
      8 C6         -2.5648    2.9500    1.8663 C.ar      1 MOL        -0.0974
      9 C7         -2.2133    1.8034    1.1539 C.ar      1 MOL        -0.1577
     10 C8         -0.9602    1.7158    0.5475 C.ar      1 MOL         0.0287
     11 S1         -0.5618    0.2240   -0.3504 S.3       1 MOL        -0.0864
     12 C9          0.8725   -0.3471    0.5479 C.ar      1 MOL        -0.0352
     13 C10         1.8575   -1.0770   -0.1202 C.ar      1 MOL        -0.1080
     14 C11         2.9942   -1.5392    0.5550 C.ar      1 MOL        -0.0801
     15 C12         3.1242   -1.2526    1.9242 C.ar      1 MOL        -0.1729
     16 C13         2.1285   -0.5238    2.5651 C.ar      1 MOL         0.0545
     17 C14         0.9878   -0.0537    1.9107 C.ar      1 MOL        -0.0801
     18 N2          2.5420   -0.4150    3.8654 N.pl3     1 MOL        -0.3860
     19 N3          3.7190   -1.0102    4.1207 N.2       1 MOL        -0.3947
     20 C15         4.0702   -1.5186    2.9374 C.2       1 MOL         0.3773
     21 C16         5.2721   -2.2471    2.7384 C.2       1 MOL        -0.1776
     22 C17         5.3756   -3.5472    2.3043 C.2       1 MOL        -0.1980
     23 C18         6.6241   -4.2968    2.0793 C.ar      1 MOL         0.4459
     24 C19         6.5734   -5.6089    1.6371 C.ar      1 MOL        -0.2368
     25 C20         7.7773   -6.2756    1.4384 C.ar      1 MOL        -0.0928
     26 C21         8.9780   -5.6190    1.6844 C.ar      1 MOL        -0.2453
     27 C22         8.9211   -4.3064    2.1243 C.ar      1 MOL         0.3986
     28 N4          7.7710   -3.6259    2.3289 N.ar      1 MOL        -0.6566
     29 H1          4.0276    3.8861    0.2347 H         1 MOL         0.0431
     30 H2          3.8041    2.2662   -0.4621 H         1 MOL         0.0431
     31 H3          4.3645    2.4420    1.2148 H         1 MOL         0.0431
     32 H4          2.1540    2.9429    1.9019 H         1 MOL         0.3101
     33 H5          0.2835    4.7538    1.4567 H         1 MOL         0.1410
     34 H6         -1.9367    4.9016    2.5275 H         1 MOL         0.1378
     35 H7         -3.5404    3.0187    2.3380 H         1 MOL         0.1360
     36 H8         -2.9312    0.9898    1.0839 H         1 MOL         0.1467
     37 H9          1.7598   -1.3008   -1.1806 H         1 MOL         0.1544
     38 H10         3.7515   -2.1056    0.0213 H         1 MOL         0.1449
     39 H11         0.2325    0.5123    2.4465 H         1 MOL         0.1523
     40 H12         2.0676    0.0523    4.6279 H         1 MOL         0.4865
     41 H13         6.2315   -1.7162    2.9193 H         1 MOL         0.1330
     42 H14         4.4637   -4.0901    2.0677 H         1 MOL         0.1617
     43 H15         5.6323   -6.1150    1.4470 H         1 MOL         0.1438
     44 H16         7.7804   -7.3046    1.0914 H         1 MOL         0.1387
     45 H17         9.9280   -6.1195    1.5368 H         1 MOL         0.1440
     46 H18         9.8293   -3.7501    2.3320 H         1 MOL         0.0235
@<TRIPOS>BOND
     1    1    2 1
     2    2    3 am
     3    3    4 2
     4    3    5 1
     5    5   10 ar
     6    5    6 ar
     7    6    7 ar
     8    7    8 ar
     9    8    9 ar
    10    9   10 ar
    11   10   11 1
    12   11   12 1
    13   12   17 ar
    14   12   13 ar
    15   13   14 ar
    16   14   15 ar
    17   15   20 1
    18   15   16 ar
    19   16   17 ar
    20   16   18 1
    21   18   19 1
    22   19   20 2
    23   20   21 1
    24   21   22 2
    25   22   23 1
    26   23   28 ar
    27   23   24 ar
    28   24   25 ar
    29   25   26 ar
    30   26   27 ar
    31   27   28 ar
    32    1   29 1
    33    1   30 1
    34    1   31 1
    35    2   32 1
    36    6   33 1
    37    7   34 1
    38    8   35 1
    39    9   36 1
    40   13   37 1
    41   14   38 1
    42   17   39 1
    43   18   40 1
    44   21   41 1
    45   22   42 1
    46   24   43 1
    47   25   44 1
    48   26   45 1
    49   27   46 1
@<TRIPOS>MOLECULE
~{N}-methyl-2-[[3-[(~{E})-2-(2-pyridyl)vinyl]-1~{H}-indazol-6-yl]sulfanyl]benzamide
   46    49     0     0     0
SMALL
USER_CHARGES

@<TRIPOS>ATOM
      1 C1         -0.0348   -4.3249    1.8544 C.3       1 MOL         0.0802
      2 N1         -0.0581   -3.7637    0.5228 N.am      1 MOL        -0.5743
      3 C2         -1.0095   -2.8387    0.1232 C.2       1 MOL         0.6672
      4 O1         -1.9116   -2.4059    0.8356 O.2       1 MOL        -0.5832
      5 C3         -0.9150   -2.3864   -1.2604 C.ar      1 MOL        -0.1328
      6 C4         -1.0301   -3.3472   -2.2650 C.ar      1 MOL        -0.0937
      7 C5         -0.9483   -2.9685   -3.6050 C.ar      1 MOL        -0.1467
      8 C6         -0.7513   -1.6289   -3.9403 C.ar      1 MOL        -0.0974
      9 C7         -0.6361   -0.6682   -2.9356 C.ar      1 MOL        -0.1577
     10 C8         -0.7179   -1.0469   -1.5957 C.ar      1 MOL         0.0287
     11 S1         -0.5618    0.2240   -0.3504 S.3       1 MOL        -0.0864
     12 C9          0.8725   -0.3471    0.5479 C.ar      1 MOL        -0.0352
     13 C10         1.8575   -1.0770   -0.1202 C.ar      1 MOL        -0.1080
     14 C11         2.9942   -1.5392    0.5550 C.ar      1 MOL        -0.0801
     15 C12         3.1242   -1.2526    1.9242 C.ar      1 MOL        -0.1729
     16 C13         2.1285   -0.5238    2.5651 C.ar      1 MOL         0.0545
     17 C14         0.9878   -0.0537    1.9107 C.ar      1 MOL        -0.0801
     18 N2          2.5420   -0.4150    3.8654 N.pl3     1 MOL        -0.3860
     19 N3          3.7190   -1.0102    4.1207 N.2       1 MOL        -0.3947
     20 C15         4.0702   -1.5186    2.9374 C.2       1 MOL         0.3773
     21 C16         5.2721   -2.2471    2.7384 C.2       1 MOL        -0.1776
     22 C17         5.3756   -3.5472    2.3043 C.2       1 MOL        -0.1980
     23 C18         6.6241   -4.2968    2.0793 C.ar      1 MOL         0.4459
     24 C19         6.5734   -5.6089    1.6371 C.ar      1 MOL        -0.2368
     25 C20         7.7773   -6.2756    1.4384 C.ar      1 MOL        -0.0928
     26 C21         8.9780   -5.6190    1.6844 C.ar      1 MOL        -0.2453
     27 C22         8.9211   -4.3064    2.1243 C.ar      1 MOL         0.3986
     28 N4          7.7710   -3.6259    2.3289 N.ar      1 MOL        -0.6566
     29 H1         -0.6404   -5.2342    1.8897 H         1 MOL         0.0431
     30 H2         -0.4362   -3.6065    2.5744 H         1 MOL         0.0431
     31 H3          0.9904   -4.5735    2.1419 H         1 MOL         0.0431
     32 H4          0.6479   -4.0579   -0.1441 H         1 MOL         0.3101
     33 H5         -1.1834   -4.3948   -2.0174 H         1 MOL         0.1410
     34 H6         -1.0374   -3.7168   -4.3874 H         1 MOL         0.1378
     35 H7         -0.6880   -1.3343   -4.9835 H         1 MOL         0.1360
     36 H8         -0.4827    0.3702   -3.2193 H         1 MOL         0.1467
     37 H9          1.7598   -1.3008   -1.1806 H         1 MOL         0.1544
     38 H10         3.7515   -2.1056    0.0213 H         1 MOL         0.1449
     39 H11         0.2325    0.5123    2.4465 H         1 MOL         0.1523
     40 H12         2.0676    0.0523    4.6279 H         1 MOL         0.4865
     41 H13         6.2315   -1.7162    2.9193 H         1 MOL         0.1330
     42 H14         4.4637   -4.0901    2.0677 H         1 MOL         0.1617
     43 H15         5.6323   -6.1150    1.4470 H         1 MOL         0.1438
     44 H16         7.7804   -7.3046    1.0914 H         1 MOL         0.1387
     45 H17         9.9280   -6.1195    1.5368 H         1 MOL         0.1440
     46 H18         9.8293   -3.7501    2.3320 H         1 MOL         0.0235
@<TRIPOS>BOND
     1    1    2 1
     2    2    3 am
     3    3    4 2
     4    3    5 1
     5    5   10 ar
     6    5    6 ar
     7    6    7 ar
     8    7    8 ar
     9    8    9 ar
    10    9   10 ar
    11   10   11 1
    12   11   12 1
    13   12   17 ar
    14   12   13 ar
    15   13   14 ar
    16   14   15 ar
    17   15   20 1
    18   15   16 ar
    19   16   17 ar
    20   16   18 1
    21   18   19 1
    22   19   20 2
    23   20   21 1
    24   21   22 2
    25   22   23 1
    26   23   28 ar
    27   23   24 ar
    28   24   25 ar
    29   25   26 ar
    30   26   27 ar
    31   27   28 ar
    32    1   29 1
    33    1   30 1
    34    1   31 1
    35    2   32 1
    36    6   33 1
    37    7   34 1
    38    8   35 1
    39    9   36 1
    40   13   37 1
    41   14   38 1
    42   17   39 1
    43   18   40 1
    44   21   41 1
    45   22   42 1
    46   24   43 1
    47   25   44 1
    48   26   45 1
    49   27   46 1
@<TRIPOS>MOLECULE
~{N}-methyl-2-[[3-[(~{E})-2-(2-pyridyl)vinyl]-1~{H}-indazol-6-yl]sulfanyl]benzamide
   46    49     0     0     0
SMALL
USER_CHARGES

@<TRIPOS>ATOM
      1 C1         -1.4877    5.0238    1.0414 C.3       1 MOL         0.0802
      2 N1         -1.7634    3.6869    1.5161 N.am      1 MOL        -0.5743
      3 C2         -2.2118    2.6788    0.6776 C.2       1 MOL         0.6672
      4 O1         -2.4185    2.8061   -0.5264 O.2       1 MOL        -0.5832
      5 C3         -2.4696    1.3911    1.3126 C.ar      1 MOL        -0.1328
      6 C4         -3.4271    1.3490    2.3261 C.ar      1 MOL        -0.0937
      7 C5         -3.7131    0.1428    2.9656 C.ar      1 MOL        -0.1467
      8 C6         -3.0416   -1.0212    2.5918 C.ar      1 MOL        -0.0974
      9 C7         -2.0840   -0.9790    1.5784 C.ar      1 MOL        -0.1577
     10 C8         -1.7980    0.2271    0.9388 C.ar      1 MOL         0.0287
     11 S1         -0.5618    0.2240   -0.3504 S.3       1 MOL        -0.0864
     12 C9          0.8725   -0.3471    0.5479 C.ar      1 MOL        -0.0352
     13 C10         1.8575   -1.0770   -0.1202 C.ar      1 MOL        -0.1080
     14 C11         2.9942   -1.5392    0.5550 C.ar      1 MOL        -0.0801
     15 C12         3.1242   -1.2526    1.9242 C.ar      1 MOL        -0.1729
     16 C13         2.1285   -0.5238    2.5651 C.ar      1 MOL         0.0545
     17 C14         0.9878   -0.0537    1.9107 C.ar      1 MOL        -0.0801
     18 N2          2.5420   -0.4150    3.8654 N.pl3     1 MOL        -0.3860
     19 N3          3.7190   -1.0102    4.1207 N.2       1 MOL        -0.3947
     20 C15         4.0702   -1.5186    2.9374 C.2       1 MOL         0.3773
     21 C16         5.2721   -2.2471    2.7384 C.2       1 MOL        -0.1776
     22 C17         6.4511   -2.0789    3.4248 C.2       1 MOL        -0.1980
     23 C18         7.6926   -2.8486    3.2311 C.ar      1 MOL         0.4459
     24 C19         7.6310   -4.1655    2.8048 C.ar      1 MOL        -0.2368
     25 C20         8.8287   -4.8513    2.6355 C.ar      1 MOL        -0.0928
     26 C21        10.0341   -4.2083    2.8940 C.ar      1 MOL        -0.2453
     27 C22         9.9881   -2.8894    3.3161 C.ar      1 MOL         0.3986
     28 N4          8.8444   -2.1905    3.4920 N.ar      1 MOL        -0.6566
     29 H1         -2.3870    5.6409    1.1132 H         1 MOL         0.0431
     30 H2         -1.1632    4.9949   -0.0023 H         1 MOL         0.0431
     31 H3         -0.6972    5.4825    1.6415 H         1 MOL         0.0431
     32 H4         -1.6234    3.4787    2.4994 H         1 MOL         0.3101
     33 H5         -3.9575    2.2489    2.6274 H         1 MOL         0.1410
     34 H6         -4.4584    0.1101    3.7552 H         1 MOL         0.1378
     35 H7         -3.2648   -1.9601    3.0896 H         1 MOL         0.1360
     36 H8         -1.5724   -1.8981    1.3028 H         1 MOL         0.1467
     37 H9          1.7598   -1.3008   -1.1806 H         1 MOL         0.1544
     38 H10         3.7515   -2.1056    0.0213 H         1 MOL         0.1449
     39 H11         0.2325    0.5123    2.4465 H         1 MOL         0.1523
     40 H12         2.0676    0.0523    4.6279 H         1 MOL         0.4865
     41 H13         5.2633   -3.0558    1.9762 H         1 MOL         0.1330
     42 H14         6.4908   -1.3320    4.2140 H         1 MOL         0.1617
     43 H15         6.6863   -4.6609    2.6048 H         1 MOL         0.1438
     44 H16         8.8233   -5.8846    2.3018 H         1 MOL         0.1387
     45 H17        10.9794   -4.7238    2.7693 H         1 MOL         0.1440
     46 H18        10.9003   -2.3432    3.5324 H         1 MOL         0.0235
@<TRIPOS>BOND
     1    1    2 1
     2    2    3 am
     3    3    4 2
     4    3    5 1
     5    5   10 ar
     6    5    6 ar
     7    6    7 ar
     8    7    8 ar
     9    8    9 ar
    10    9   10 ar
    11   10   11 1
    12   11   12 1
    13   12   17 ar
    14   12   13 ar
    15   13   14 ar
    16   14   15 ar
    17   15   20 1
    18   15   16 ar
    19   16   17 ar
    20   16   18 1
    21   18   19 1
    22   19   20 2
    23   20   21 1
    24   21   22 2
    25   22   23 1
    26   23   28 ar
    27   23   24 ar
    28   24   25 ar
    29   25   26 ar
    30   26   27 ar
    31   27   28 ar
    32    1   29 1
    33    1   30 1
    34    1   31 1
    35    2   32 1
    36    6   33 1
    37    7   34 1
    38    8   35 1
    39    9   36 1
    40   13   37 1
    41   14   38 1
    42   17   39 1
    43   18   40 1
    44   21   41 1
    45   22   42 1
    46   24   43 1
    47   25   44 1
    48   26   45 1
    49   27   46 1
@<TRIPOS>MOLECULE
~{N}-methyl-2-[[3-[(~{E})-2-(2-pyridyl)vinyl]-1~{H}-indazol-6-yl]sulfanyl]benzamide
   46    49     0     0     0
SMALL
USER_CHARGES

@<TRIPOS>ATOM
      1 C1         -2.8530   -2.0910    3.5512 C.3       1 MOL         0.0802
      2 N1         -2.4215   -2.4053    2.2082 N.am      1 MOL        -0.5743
      3 C2         -2.6613   -1.5625    1.1346 C.2       1 MOL         0.6672
      4 O1         -3.2498   -0.4867    1.2036 O.2       1 MOL        -0.5832
      5 C3         -2.1859   -2.0329   -0.1617 C.ar      1 MOL        -0.1328
      6 C4         -2.6991   -3.2381   -0.6412 C.ar      1 MOL        -0.0937
      7 C5         -2.2792   -3.7328   -1.8760 C.ar      1 MOL        -0.1467
      8 C6         -1.3461   -3.0224   -2.6312 C.ar      1 MOL        -0.0974
      9 C7         -0.8329   -1.8173   -2.1516 C.ar      1 MOL        -0.1577
     10 C8         -1.2528   -1.3226   -0.9169 C.ar      1 MOL         0.0287
     11 S1         -0.5618    0.2240   -0.3504 S.3       1 MOL        -0.0864
     12 C9          0.8725   -0.3471    0.5479 C.ar      1 MOL        -0.0352
     13 C10         1.8575   -1.0770   -0.1202 C.ar      1 MOL        -0.1080
     14 C11         2.9942   -1.5392    0.5550 C.ar      1 MOL        -0.0801
     15 C12         3.1242   -1.2526    1.9242 C.ar      1 MOL        -0.1729
     16 C13         2.1285   -0.5238    2.5651 C.ar      1 MOL         0.0545
     17 C14         0.9878   -0.0537    1.9107 C.ar      1 MOL        -0.0801
     18 N2          2.5420   -0.4150    3.8654 N.pl3     1 MOL        -0.3860
     19 N3          3.7190   -1.0102    4.1207 N.2       1 MOL        -0.3947
     20 C15         4.0702   -1.5186    2.9374 C.2       1 MOL         0.3773
     21 C16         5.2721   -2.2471    2.7384 C.2       1 MOL        -0.1776
     22 C17         6.2915   -1.9193    1.8765 C.2       1 MOL        -0.1980
     23 C18         7.5476   -2.6654    1.6845 C.ar      1 MOL         0.4459
     24 C19         7.5726   -4.0380    1.8718 C.ar      1 MOL        -0.2368
     25 C20         8.7805   -4.6992    1.6785 C.ar      1 MOL        -0.0928
     26 C21         9.9102   -3.9777    1.3090 C.ar      1 MOL        -0.2453
     27 C22         9.7804   -2.6078    1.1467 C.ar      1 MOL         0.3986
     28 N4          8.6241   -1.9306    1.3255 N.ar      1 MOL        -0.6566
     29 H1         -3.8573   -2.4860    3.7253 H         1 MOL         0.0431
     30 H2         -2.8705   -1.0077    3.6988 H         1 MOL         0.0431
     31 H3         -2.1695   -2.5331    4.2811 H         1 MOL         0.0431
     32 H4         -1.9247   -3.2751    2.0454 H         1 MOL         0.3101
     33 H5         -3.4266   -3.8020   -0.0625 H         1 MOL         0.1410
     34 H6         -2.6784   -4.6716   -2.2492 H         1 MOL         0.1378
     35 H7         -1.0198   -3.4076   -3.5926 H         1 MOL         0.1360
     36 H8         -0.1065   -1.2799   -2.7564 H         1 MOL         0.1467
     37 H9          1.7598   -1.3008   -1.1806 H         1 MOL         0.1544
     38 H10         3.7515   -2.1056    0.0213 H         1 MOL         0.1449
     39 H11         0.2325    0.5123    2.4465 H         1 MOL         0.1523
     40 H12         2.0676    0.0523    4.6279 H         1 MOL         0.4865
     41 H13         5.4299   -3.1578    3.3555 H         1 MOL         0.1330
     42 H14         6.2020   -1.0092    1.2882 H         1 MOL         0.1617
     43 H15         6.6867   -4.5946    2.1602 H         1 MOL         0.1438
     44 H16         8.8416   -5.7748    1.8144 H         1 MOL         0.1387
     45 H17        10.8620   -4.4723    1.1536 H         1 MOL         0.1440
     46 H18        10.6319   -1.9991    0.8606 H         1 MOL         0.0235
@<TRIPOS>BOND
     1    1    2 1
     2    2    3 am
     3    3    4 2
     4    3    5 1
     5    5   10 ar
     6    5    6 ar
     7    6    7 ar
     8    7    8 ar
     9    8    9 ar
    10    9   10 ar
    11   10   11 1
    12   11   12 1
    13   12   17 ar
    14   12   13 ar
    15   13   14 ar
    16   14   15 ar
    17   15   20 1
    18   15   16 ar
    19   16   17 ar
    20   16   18 1
    21   18   19 1
    22   19   20 2
    23   20   21 1
    24   21   22 2
    25   22   23 1
    26   23   28 ar
    27   23   24 ar
    28   24   25 ar
    29   25   26 ar
    30   26   27 ar
    31   27   28 ar
    32    1   29 1
    33    1   30 1
    34    1   31 1
    35    2   32 1
    36    6   33 1
    37    7   34 1
    38    8   35 1
    39    9   36 1
    40   13   37 1
    41   14   38 1
    42   17   39 1
    43   18   40 1
    44   21   41 1
    45   22   42 1
    46   24   43 1
    47   25   44 1
    48   26   45 1
    49   27   46 1
@<TRIPOS>MOLECULE
~{N}-methyl-2-[[3-[(~{E})-2-(2-pyridyl)vinyl]-1~{H}-indazol-6-yl]sulfanyl]benzamide
   46    49     0     0     0
SMALL
USER_CHARGES

@<TRIPOS>ATOM
      1 C1         -3.7001    1.0446    2.9867 C.3       1 MOL         0.0802
      2 N1         -2.5845    1.6924    2.3351 N.am      1 MOL        -0.5743
      3 C2         -2.6410    2.1231    1.0191 C.2       1 MOL         0.6672
      4 O1         -3.6167    2.0054    0.2825 O.2       1 MOL        -0.5832
      5 C3         -1.4239    2.7350    0.4975 C.ar      1 MOL        -0.1328
      6 C4         -1.2774    4.1142    0.6464 C.ar      1 MOL        -0.0937
      7 C5         -0.1322    4.7497    0.1666 C.ar      1 MOL        -0.1467
      8 C6          0.8665    4.0061   -0.4621 C.ar      1 MOL        -0.0974
      9 C7          0.7200    2.6269   -0.6110 C.ar      1 MOL        -0.1577
     10 C8         -0.4253    1.9914   -0.1313 C.ar      1 MOL         0.0287
     11 S1         -0.5618    0.2240   -0.3504 S.3       1 MOL        -0.0864
     12 C9          0.8725   -0.3471    0.5479 C.ar      1 MOL        -0.0352
     13 C10         1.8575   -1.0770   -0.1202 C.ar      1 MOL        -0.1080
     14 C11         2.9942   -1.5392    0.5550 C.ar      1 MOL        -0.0801
     15 C12         3.1242   -1.2526    1.9242 C.ar      1 MOL        -0.1729
     16 C13         2.1285   -0.5238    2.5651 C.ar      1 MOL         0.0545
     17 C14         0.9878   -0.0537    1.9107 C.ar      1 MOL        -0.0801
     18 N2          2.5420   -0.4150    3.8654 N.pl3     1 MOL        -0.3860
     19 N3          3.7190   -1.0102    4.1207 N.2       1 MOL        -0.3947
     20 C15         4.0702   -1.5186    2.9374 C.2       1 MOL         0.3773
     21 C16         5.2721   -2.2471    2.7384 C.2       1 MOL        -0.1776
     22 C17         6.0033   -2.3127    1.5763 C.2       1 MOL        -0.1980
     23 C18         7.2613   -3.0535    1.3759 C.ar      1 MOL         0.4459
     24 C19         7.5066   -4.2092    2.0996 C.ar      1 MOL        -0.2368
     25 C20         8.7070   -4.8744    1.8761 C.ar      1 MOL        -0.0928
     26 C21         9.6123   -4.3707    0.9488 C.ar      1 MOL        -0.2453
     27 C22         9.2726   -3.2079    0.2764 C.ar      1 MOL         0.3986
     28 N4          8.1163   -2.5338    0.4667 N.ar      1 MOL        -0.6566
     29 H1         -3.6430   -0.0374    2.8421 H         1 MOL         0.0431
     30 H2         -4.6436    1.4061    2.5689 H         1 MOL         0.0431
     31 H3         -3.6872    1.2576    4.0590 H         1 MOL         0.0431
     32 H4         -1.7284    1.8372    2.8605 H         1 MOL         0.3101
     33 H5         -2.0484    4.7057    1.1341 H         1 MOL         0.1410
     34 H6         -0.0183    5.8238    0.2821 H         1 MOL         0.1378
     35 H7          1.7582    4.5011   -0.8351 H         1 MOL         0.1360
     36 H8          1.5105    2.0666   -1.1043 H         1 MOL         0.1467
     37 H9          1.7598   -1.3008   -1.1806 H         1 MOL         0.1544
     38 H10         3.7515   -2.1056    0.0213 H         1 MOL         0.1449
     39 H11         0.2325    0.5123    2.4465 H         1 MOL         0.1523
     40 H12         2.0676    0.0523    4.6279 H         1 MOL         0.4865
     41 H13         5.6893   -2.7988    3.6082 H         1 MOL         0.1330
     42 H14         5.6588   -1.7483    0.7131 H         1 MOL         0.1617
     43 H15         6.7951   -4.5965    2.8219 H         1 MOL         0.1438
     44 H16         8.9365   -5.7844    2.4225 H         1 MOL         0.1387
     45 H17        10.5541   -4.8726    0.7591 H         1 MOL         0.1440
     46 H18         9.9448   -2.7730   -0.4560 H         1 MOL         0.0235
@<TRIPOS>BOND
     1    1    2 1
     2    2    3 am
     3    3    4 2
     4    3    5 1
     5    5   10 ar
     6    5    6 ar
     7    6    7 ar
     8    7    8 ar
     9    8    9 ar
    10    9   10 ar
    11   10   11 1
    12   11   12 1
    13   12   17 ar
    14   12   13 ar
    15   13   14 ar
    16   14   15 ar
    17   15   20 1
    18   15   16 ar
    19   16   17 ar
    20   16   18 1
    21   18   19 1
    22   19   20 2
    23   20   21 1
    24   21   22 2
    25   22   23 1
    26   23   28 ar
    27   23   24 ar
    28   24   25 ar
    29   25   26 ar
    30   26   27 ar
    31   27   28 ar
    32    1   29 1
    33    1   30 1
    34    1   31 1
    35    2   32 1
    36    6   33 1
    37    7   34 1
    38    8   35 1
    39    9   36 1
    40   13   37 1
    41   14   38 1
    42   17   39 1
    43   18   40 1
    44   21   41 1
    45   22   42 1
    46   24   43 1
    47   25   44 1
    48   26   45 1
    49   27   46 1
@<TRIPOS>MOLECULE
~{N}-methyl-2-[[3-[(~{E})-2-(2-pyridyl)vinyl]-1~{H}-indazol-6-yl]sulfanyl]benzamide
   46    49     0     0     0
SMALL
USER_CHARGES

@<TRIPOS>ATOM
      1 C1         -1.1448   -3.9735   -0.3705 C.3       1 MOL         0.0802
      2 N1         -1.6802   -2.7003    0.0551 N.am      1 MOL        -0.5743
      3 C2         -1.5255   -2.2242    1.3473 C.2       1 MOL         0.6672
      4 O1         -0.9336   -2.8141    2.2475 O.2       1 MOL        -0.5832
      5 C3         -2.1460   -0.9343    1.6283 C.ar      1 MOL        -0.1328
      6 C4         -3.1183   -0.8874    2.6275 C.ar      1 MOL        -0.0937
      7 C5         -3.7424    0.3210    2.9371 C.ar      1 MOL        -0.1467
      8 C6         -3.3943    1.4825    2.2476 C.ar      1 MOL        -0.0974
      9 C7         -2.4221    1.4355    1.2484 C.ar      1 MOL        -0.1577
     10 C8         -1.7980    0.2271    0.9388 C.ar      1 MOL         0.0287
     11 S1         -0.5618    0.2240   -0.3504 S.3       1 MOL        -0.0864
     12 C9          0.8725   -0.3471    0.5479 C.ar      1 MOL        -0.0352
     13 C10         1.8575   -1.0770   -0.1202 C.ar      1 MOL        -0.1080
     14 C11         2.9942   -1.5392    0.5550 C.ar      1 MOL        -0.0801
     15 C12         3.1242   -1.2526    1.9242 C.ar      1 MOL        -0.1729
     16 C13         2.1285   -0.5238    2.5651 C.ar      1 MOL         0.0545
     17 C14         0.9878   -0.0537    1.9107 C.ar      1 MOL        -0.0801
     18 N2          2.5420   -0.4150    3.8654 N.pl3     1 MOL        -0.3860
     19 N3          3.7190   -1.0102    4.1207 N.2       1 MOL        -0.3947
     20 C15         4.0702   -1.5186    2.9374 C.2       1 MOL         0.3773
     21 C16         5.2721   -2.2471    2.7384 C.2       1 MOL        -0.1776
     22 C17         6.2915   -1.9193    1.8765 C.2       1 MOL        -0.1980
     23 C18         7.5476   -2.6654    1.6845 C.ar      1 MOL         0.4459
     24 C19         8.4897   -2.2120    0.7753 C.ar      1 MOL        -0.2368
     25 C20         9.6598   -2.9487    0.6287 C.ar      1 MOL        -0.0928
     26 C21         9.8493   -4.0998    1.3851 C.ar      1 MOL        -0.2453
     27 C22         8.8464   -4.4687    2.2672 C.ar      1 MOL         0.3986
     28 N4          7.6963   -3.7787    2.4370 N.ar      1 MOL        -0.6566
     29 H1         -1.8813   -4.7645   -0.2068 H         1 MOL         0.0431
     30 H2         -0.2406   -4.2118    0.1962 H         1 MOL         0.0431
     31 H3         -0.8935   -3.9413   -1.4341 H         1 MOL         0.0431
     32 H4         -2.1881   -2.1344   -0.6168 H         1 MOL         0.3101
     33 H5         -3.3993   -1.7854    3.1723 H         1 MOL         0.1410
     34 H6         -4.4999    0.3575    3.7148 H         1 MOL         0.1378
     35 H7         -3.8801    2.4231    2.4891 H         1 MOL         0.1360
     36 H8         -2.1662    2.3526    0.7234 H         1 MOL         0.1467
     37 H9          1.7598   -1.3008   -1.1806 H         1 MOL         0.1544
     38 H10         3.7515   -2.1056    0.0213 H         1 MOL         0.1449
     39 H11         0.2325    0.5123    2.4465 H         1 MOL         0.1523
     40 H12         2.0676    0.0523    4.6279 H         1 MOL         0.4865
     41 H13         5.4299   -3.1578    3.3555 H         1 MOL         0.1330
     42 H14         6.2020   -1.0092    1.2882 H         1 MOL         0.1617
     43 H15         8.3349   -1.3123    0.1883 H         1 MOL         0.1438
     44 H16        10.4234   -2.6262   -0.0728 H         1 MOL         0.1387
     45 H17        10.7533   -4.6897    1.2866 H         1 MOL         0.1440
     46 H18         8.9447   -5.3591    2.8793 H         1 MOL         0.0235
@<TRIPOS>BOND
     1    1    2 1
     2    2    3 am
     3    3    4 2
     4    3    5 1
     5    5   10 ar
     6    5    6 ar
     7    6    7 ar
     8    7    8 ar
     9    8    9 ar
    10    9   10 ar
    11   10   11 1
    12   11   12 1
    13   12   17 ar
    14   12   13 ar
    15   13   14 ar
    16   14   15 ar
    17   15   20 1
    18   15   16 ar
    19   16   17 ar
    20   16   18 1
    21   18   19 1
    22   19   20 2
    23   20   21 1
    24   21   22 2
    25   22   23 1
    26   23   28 ar
    27   23   24 ar
    28   24   25 ar
    29   25   26 ar
    30   26   27 ar
    31   27   28 ar
    32    1   29 1
    33    1   30 1
    34    1   31 1
    35    2   32 1
    36    6   33 1
    37    7   34 1
    38    8   35 1
    39    9   36 1
    40   13   37 1
    41   14   38 1
    42   17   39 1
    43   18   40 1
    44   21   41 1
    45   22   42 1
    46   24   43 1
    47   25   44 1
    48   26   45 1
    49   27   46 1
@<TRIPOS>MOLECULE
~{N}-methyl-2-[[3-[(~{E})-2-(2-pyridyl)vinyl]-1~{H}-indazol-6-yl]sulfanyl]benzamide
   46    49     0     0     0
SMALL
USER_CHARGES

@<TRIPOS>ATOM
      1 C1          0.0910    5.1884   -1.2229 C.3       1 MOL         0.0802
      2 N1          0.0923    3.9493   -1.9669 N.am      1 MOL        -0.5743
      3 C2          0.7512    2.8152   -1.5196 C.2       1 MOL         0.6672
      4 O1          1.3882    2.7396   -0.4722 O.2       1 MOL        -0.5832
      5 C3          0.6807    1.6515   -2.3963 C.ar      1 MOL        -0.1328
      6 C4          1.2006    1.7787   -3.6845 C.ar      1 MOL        -0.0937
      7 C5          1.1598    0.6962   -4.5631 C.ar      1 MOL        -0.1467
      8 C6          0.5991   -0.5136   -4.1537 C.ar      1 MOL        -0.0974
      9 C7          0.0791   -0.6408   -2.8656 C.ar      1 MOL        -0.1577
     10 C8          0.1199    0.4417   -1.9870 C.ar      1 MOL         0.0287
     11 S1         -0.5618    0.2240   -0.3504 S.3       1 MOL        -0.0864
     12 C9          0.8725   -0.3471    0.5479 C.ar      1 MOL        -0.0352
     13 C10         1.8575   -1.0770   -0.1202 C.ar      1 MOL        -0.1080
     14 C11         2.9942   -1.5392    0.5550 C.ar      1 MOL        -0.0801
     15 C12         3.1242   -1.2526    1.9242 C.ar      1 MOL        -0.1729
     16 C13         2.1285   -0.5238    2.5651 C.ar      1 MOL         0.0545
     17 C14         0.9878   -0.0537    1.9107 C.ar      1 MOL        -0.0801
     18 N2          2.5420   -0.4150    3.8654 N.pl3     1 MOL        -0.3860
     19 N3          3.7190   -1.0102    4.1207 N.2       1 MOL        -0.3947
     20 C15         4.0702   -1.5186    2.9374 C.2       1 MOL         0.3773
     21 C16         5.2721   -2.2471    2.7384 C.2       1 MOL        -0.1776
     22 C17         6.4511   -2.0789    3.4248 C.2       1 MOL        -0.1980
     23 C18         7.6926   -2.8486    3.2311 C.ar      1 MOL         0.4459
     24 C19         8.9203   -2.2545    3.4755 C.ar      1 MOL        -0.2368
     25 C20        10.0642   -3.0202    3.2795 C.ar      1 MOL        -0.0928
     26 C21         9.9471   -4.3379    2.8513 C.ar      1 MOL        -0.2453
     27 C22         8.6735   -4.8388    2.6350 C.ar      1 MOL         0.3986
     28 N4          7.5392   -4.1255    2.8145 N.ar      1 MOL        -0.6566
     29 H1          0.9393    5.8084   -1.5242 H         1 MOL         0.0431
     30 H2          0.1662    4.9858   -0.1511 H         1 MOL         0.0431
     31 H3         -0.8333    5.7412   -1.4110 H         1 MOL         0.0431
     32 H4         -0.4075    3.9083   -2.8491 H         1 MOL         0.3101
     33 H5          1.6401    2.7161   -4.0165 H         1 MOL         0.1410
     34 H6          1.5642    0.7954   -5.5664 H         1 MOL         0.1378
     35 H7          0.5678   -1.3563   -4.8378 H         1 MOL         0.1360
     36 H8         -0.3534   -1.5927   -2.5672 H         1 MOL         0.1467
     37 H9          1.7598   -1.3008   -1.1806 H         1 MOL         0.1544
     38 H10         3.7515   -2.1056    0.0213 H         1 MOL         0.1449
     39 H11         0.2325    0.5123    2.4465 H         1 MOL         0.1523
     40 H12         2.0676    0.0523    4.6279 H         1 MOL         0.4865
     41 H13         5.2633   -3.0558    1.9762 H         1 MOL         0.1330
     42 H14         6.4908   -1.3320    4.2140 H         1 MOL         0.1617
     43 H15         9.0040   -1.2253    3.8098 H         1 MOL         0.1438
     44 H16        11.0454   -2.5918    3.4611 H         1 MOL         0.1387
     45 H17        10.8253   -4.9528    2.6915 H         1 MOL         0.1440
     46 H18         8.5277   -5.8602    2.2991 H         1 MOL         0.0235
@<TRIPOS>BOND
     1    1    2 1
     2    2    3 am
     3    3    4 2
     4    3    5 1
     5    5   10 ar
     6    5    6 ar
     7    6    7 ar
     8    7    8 ar
     9    8    9 ar
    10    9   10 ar
    11   10   11 1
    12   11   12 1
    13   12   17 ar
    14   12   13 ar
    15   13   14 ar
    16   14   15 ar
    17   15   20 1
    18   15   16 ar
    19   16   17 ar
    20   16   18 1
    21   18   19 1
    22   19   20 2
    23   20   21 1
    24   21   22 2
    25   22   23 1
    26   23   28 ar
    27   23   24 ar
    28   24   25 ar
    29   25   26 ar
    30   26   27 ar
    31   27   28 ar
    32    1   29 1
    33    1   30 1
    34    1   31 1
    35    2   32 1
    36    6   33 1
    37    7   34 1
    38    8   35 1
    39    9   36 1
    40   13   37 1
    41   14   38 1
    42   17   39 1
    43   18   40 1
    44   21   41 1
    45   22   42 1
    46   24   43 1
    47   25   44 1
    48   26   45 1
    49   27   46 1
@<TRIPOS>MOLECULE
~{N}-methyl-2-[[3-[(~{E})-2-(2-pyridyl)vinyl]-1~{H}-indazol-6-yl]sulfanyl]benzamide
   46    49     0     0     0
SMALL
USER_CHARGES

@<TRIPOS>ATOM
      1 C1          0.8033    0.1095   -4.7981 C.3       1 MOL         0.0802
      2 N1          0.2675   -0.7692   -3.7834 N.am      1 MOL        -0.5743
      3 C2         -1.0329   -0.6595   -3.3173 C.2       1 MOL         0.6672
      4 O1         -1.8502    0.1720   -3.7036 O.2       1 MOL        -0.5832
      5 C3         -1.4160   -1.6035   -2.2733 C.ar      1 MOL        -0.1328
      6 C4         -1.9615   -2.8238   -2.6721 C.ar      1 MOL        -0.0937
      7 C5         -2.3437   -3.7632   -1.7144 C.ar      1 MOL        -0.1467
      8 C6         -2.1804   -3.4823   -0.3579 C.ar      1 MOL        -0.0974
      9 C7         -1.6350   -2.2619    0.0408 C.ar      1 MOL        -0.1577
     10 C8         -1.2528   -1.3226   -0.9169 C.ar      1 MOL         0.0287
     11 S1         -0.5618    0.2240   -0.3504 S.3       1 MOL        -0.0864
     12 C9          0.8725   -0.3471    0.5479 C.ar      1 MOL        -0.0352
     13 C10         1.8575   -1.0770   -0.1202 C.ar      1 MOL        -0.1080
     14 C11         2.9942   -1.5392    0.5550 C.ar      1 MOL        -0.0801
     15 C12         3.1242   -1.2526    1.9242 C.ar      1 MOL        -0.1729
     16 C13         2.1285   -0.5238    2.5651 C.ar      1 MOL         0.0545
     17 C14         0.9878   -0.0537    1.9107 C.ar      1 MOL        -0.0801
     18 N2          2.5420   -0.4150    3.8654 N.pl3     1 MOL        -0.3860
     19 N3          3.7190   -1.0102    4.1207 N.2       1 MOL        -0.3947
     20 C15         4.0702   -1.5186    2.9374 C.2       1 MOL         0.3773
     21 C16         5.2721   -2.2471    2.7384 C.2       1 MOL        -0.1776
     22 C17         5.3756   -3.5472    2.3043 C.2       1 MOL        -0.1980
     23 C18         6.6241   -4.2968    2.0793 C.ar      1 MOL         0.4459
     24 C19         7.7499   -4.0085    2.8340 C.ar      1 MOL        -0.2368
     25 C20         8.9046   -4.7424    2.5864 C.ar      1 MOL        -0.0928
     26 C21         8.8983   -5.7282    1.6059 C.ar      1 MOL        -0.2453
     27 C22         7.7212   -5.9396    0.9063 C.ar      1 MOL         0.3986
     28 N4          6.5798   -5.2468    1.1186 N.ar      1 MOL        -0.6566
     29 H1          1.2587    0.9874   -4.3326 H         1 MOL         0.0431
     30 H2          0.0069    0.4408   -5.4701 H         1 MOL         0.0431
     31 H3          1.5638   -0.4115   -5.3860 H         1 MOL         0.0431
     32 H4          0.8655   -1.4929   -3.3981 H         1 MOL         0.3101
     33 H5         -2.0946   -3.0553   -3.7261 H         1 MOL         0.1410
     34 H6         -2.7690   -4.7133   -2.0249 H         1 MOL         0.1378
     35 H7         -2.4776   -4.2139    0.3874 H         1 MOL         0.1360
     36 H8         -1.5167   -2.0635    1.1033 H         1 MOL         0.1467
     37 H9          1.7598   -1.3008   -1.1806 H         1 MOL         0.1544
     38 H10         3.7515   -2.1056    0.0213 H         1 MOL         0.1449
     39 H11         0.2325    0.5123    2.4465 H         1 MOL         0.1523
     40 H12         2.0676    0.0523    4.6279 H         1 MOL         0.4865
     41 H13         6.2315   -1.7162    2.9193 H         1 MOL         0.1330
     42 H14         4.4637   -4.0901    2.0677 H         1 MOL         0.1617
     43 H15         7.7473   -3.2376    3.5979 H         1 MOL         0.1438
     44 H16         9.8077   -4.5477    3.1571 H         1 MOL         0.1387
     45 H17         9.7871   -6.3118    1.3958 H         1 MOL         0.1440
     46 H18         7.6642   -6.6958    0.1303 H         1 MOL         0.0235
@<TRIPOS>BOND
     1    1    2 1
     2    2    3 am
     3    3    4 2
     4    3    5 1
     5    5   10 ar
     6    5    6 ar
     7    6    7 ar
     8    7    8 ar
     9    8    9 ar
    10    9   10 ar
    11   10   11 1
    12   11   12 1
    13   12   17 ar
    14   12   13 ar
    15   13   14 ar
    16   14   15 ar
    17   15   20 1
    18   15   16 ar
    19   16   17 ar
    20   16   18 1
    21   18   19 1
    22   19   20 2
    23   20   21 1
    24   21   22 2
    25   22   23 1
    26   23   28 ar
    27   23   24 ar
    28   24   25 ar
    29   25   26 ar
    30   26   27 ar
    31   27   28 ar
    32    1   29 1
    33    1   30 1
    34    1   31 1
    35    2   32 1
    36    6   33 1
    37    7   34 1
    38    8   35 1
    39    9   36 1
    40   13   37 1
    41   14   38 1
    42   17   39 1
    43   18   40 1
    44   21   41 1
    45   22   42 1
    46   24   43 1
    47   25   44 1
    48   26   45 1
    49   27   46 1
@<TRIPOS>MOLECULE
~{N}-methyl-2-[[3-[(~{E})-2-(2-pyridyl)vinyl]-1~{H}-indazol-6-yl]sulfanyl]benzamide
   46    49     0     0     0
SMALL
USER_CHARGES

@<TRIPOS>ATOM
      1 C1         -3.5251   -3.7867   -1.2134 C.3       1 MOL         0.0802
      2 N1         -2.6487   -2.9277   -1.9769 N.am      1 MOL        -0.5743
      3 C2         -1.3923   -2.5576   -1.5241 C.2       1 MOL         0.6672
      4 O1         -0.8990   -2.9083   -0.4554 O.2       1 MOL        -0.5832
      5 C3         -0.6389   -1.6651   -2.3980 C.ar      1 MOL        -0.1328
      6 C4         -0.3453   -2.1149   -3.6853 C.ar      1 MOL        -0.0937
      7 C5          0.3715   -1.3007   -4.5621 C.ar      1 MOL        -0.1467
      8 C6          0.7950   -0.0366   -4.1515 C.ar      1 MOL        -0.0974
      9 C7          0.5014    0.4131   -2.8641 C.ar      1 MOL        -0.1577
     10 C8         -0.2154   -0.4011   -1.9874 C.ar      1 MOL         0.0287
     11 S1         -0.5618    0.2240   -0.3504 S.3       1 MOL        -0.0864
     12 C9          0.8725   -0.3471    0.5479 C.ar      1 MOL        -0.0352
     13 C10         1.8575   -1.0770   -0.1202 C.ar      1 MOL        -0.1080
     14 C11         2.9942   -1.5392    0.5550 C.ar      1 MOL        -0.0801
     15 C12         3.1242   -1.2526    1.9242 C.ar      1 MOL        -0.1729
     16 C13         2.1285   -0.5238    2.5651 C.ar      1 MOL         0.0545
     17 C14         0.9878   -0.0537    1.9107 C.ar      1 MOL        -0.0801
     18 N2          2.5420   -0.4150    3.8654 N.pl3     1 MOL        -0.3860
     19 N3          3.7190   -1.0102    4.1207 N.2       1 MOL        -0.3947
     20 C15         4.0702   -1.5186    2.9374 C.2       1 MOL         0.3773
     21 C16         5.2721   -2.2471    2.7384 C.2       1 MOL        -0.1776
     22 C17         5.9223   -3.0188    3.6718 C.2       1 MOL        -0.1980
     23 C18         7.1595   -3.7904    3.4591 C.ar      1 MOL         0.4459
     24 C19         7.7028   -4.5274    4.4991 C.ar      1 MOL        -0.2368
     25 C20         8.8707   -5.2399    4.2509 C.ar      1 MOL        -0.0928
     26 C21         9.4512   -5.1945    2.9883 C.ar      1 MOL        -0.2453
     27 C22         8.8296   -4.4278    2.0159 C.ar      1 MOL         0.3986
     28 N4          7.6946   -3.7221    2.2195 N.ar      1 MOL        -0.6566
     29 H1         -4.1605   -3.1868   -0.5567 H         1 MOL         0.0431
     30 H2         -2.9385   -4.4769   -0.6011 H         1 MOL         0.0431
     31 H3         -4.1626   -4.3686   -1.8845 H         1 MOL         0.0431
     32 H4         -2.9649   -2.5830   -2.8774 H         1 MOL         0.3101
     33 H5         -0.6690   -3.0982   -4.0179 H         1 MOL         0.1410
     34 H6          0.6007   -1.6511   -5.5644 H         1 MOL         0.1378
     35 H7          1.3526    0.5972   -4.8344 H         1 MOL         0.1360
     36 H8          0.8411    1.4017   -2.5647 H         1 MOL         0.1467
     37 H9          1.7598   -1.3008   -1.1806 H         1 MOL         0.1544
     38 H10         3.7515   -2.1056    0.0213 H         1 MOL         0.1449
     39 H11         0.2325    0.5123    2.4465 H         1 MOL         0.1523
     40 H12         2.0676    0.0523    4.6279 H         1 MOL         0.4865
     41 H13         5.7261   -2.2235    1.7243 H         1 MOL         0.1330
     42 H14         5.4872   -3.1107    4.6640 H         1 MOL         0.1617
     43 H15         7.2439   -4.5582    5.4821 H         1 MOL         0.1438
     44 H16         9.3275   -5.8307    5.0393 H         1 MOL         0.1387
     45 H17        10.3618   -5.7415    2.7728 H         1 MOL         0.1440
     46 H18         9.2429   -4.3578    1.0151 H         1 MOL         0.0235
@<TRIPOS>BOND
     1    1    2 1
     2    2    3 am
     3    3    4 2
     4    3    5 1
     5    5   10 ar
     6    5    6 ar
     7    6    7 ar
     8    7    8 ar
     9    8    9 ar
    10    9   10 ar
    11   10   11 1
    12   11   12 1
    13   12   17 ar
    14   12   13 ar
    15   13   14 ar
    16   14   15 ar
    17   15   20 1
    18   15   16 ar
    19   16   17 ar
    20   16   18 1
    21   18   19 1
    22   19   20 2
    23   20   21 1
    24   21   22 2
    25   22   23 1
    26   23   28 ar
    27   23   24 ar
    28   24   25 ar
    29   25   26 ar
    30   26   27 ar
    31   27   28 ar
    32    1   29 1
    33    1   30 1
    34    1   31 1
    35    2   32 1
    36    6   33 1
    37    7   34 1
    38    8   35 1
    39    9   36 1
    40   13   37 1
    41   14   38 1
    42   17   39 1
    43   18   40 1
    44   21   41 1
    45   22   42 1
    46   24   43 1
    47   25   44 1
    48   26   45 1
    49   27   46 1
@<TRIPOS>MOLECULE
~{N}-methyl-2-[[3-[(~{E})-2-(2-pyridyl)vinyl]-1~{H}-indazol-6-yl]sulfanyl]benzamide
   46    49     0     0     0
SMALL
USER_CHARGES

@<TRIPOS>ATOM
      1 C1         -2.2151    3.9349   -1.4621 C.3       1 MOL         0.0802
      2 N1         -2.4467    2.7373   -0.6869 N.am      1 MOL        -0.5743
      3 C2         -2.2118    2.6788    0.6776 C.2       1 MOL         0.6672
      4 O1         -1.7930    3.6107    1.3592 O.2       1 MOL        -0.5832
      5 C3         -2.4696    1.3911    1.3126 C.ar      1 MOL        -0.1328
      6 C4         -3.4271    1.3490    2.3261 C.ar      1 MOL        -0.0937
      7 C5         -3.7131    0.1428    2.9656 C.ar      1 MOL        -0.1467
      8 C6         -3.0416   -1.0212    2.5918 C.ar      1 MOL        -0.0974
      9 C7         -2.0840   -0.9790    1.5784 C.ar      1 MOL        -0.1577
     10 C8         -1.7980    0.2271    0.9388 C.ar      1 MOL         0.0287
     11 S1         -0.5618    0.2240   -0.3504 S.3       1 MOL        -0.0864
     12 C9          0.8725   -0.3471    0.5479 C.ar      1 MOL        -0.0352
     13 C10         1.8575   -1.0770   -0.1202 C.ar      1 MOL        -0.1080
     14 C11         2.9942   -1.5392    0.5550 C.ar      1 MOL        -0.0801
     15 C12         3.1242   -1.2526    1.9242 C.ar      1 MOL        -0.1729
     16 C13         2.1285   -0.5238    2.5651 C.ar      1 MOL         0.0545
     17 C14         0.9878   -0.0537    1.9107 C.ar      1 MOL        -0.0801
     18 N2          2.5420   -0.4150    3.8654 N.pl3     1 MOL        -0.3860
     19 N3          3.7190   -1.0102    4.1207 N.2       1 MOL        -0.3947
     20 C15         4.0702   -1.5186    2.9374 C.2       1 MOL         0.3773
     21 C16         5.2721   -2.2471    2.7384 C.2       1 MOL        -0.1776
     22 C17         6.2915   -1.9193    1.8765 C.2       1 MOL        -0.1980
     23 C18         7.5476   -2.6654    1.6845 C.ar      1 MOL         0.4459
     24 C19         8.4897   -2.2120    0.7753 C.ar      1 MOL        -0.2368
     25 C20         9.6598   -2.9487    0.6287 C.ar      1 MOL        -0.0928
     26 C21         9.8493   -4.0998    1.3851 C.ar      1 MOL        -0.2453
     27 C22         8.8464   -4.4687    2.2672 C.ar      1 MOL         0.3986
     28 N4          7.6963   -3.7787    2.4370 N.ar      1 MOL        -0.6566
     29 H1         -1.1904    3.9437   -1.8427 H         1 MOL         0.0431
     30 H2         -2.3678    4.8221   -0.8417 H         1 MOL         0.0431
     31 H3         -2.9054    3.9764   -2.3089 H         1 MOL         0.0431
     32 H4         -2.7942    1.9089   -1.1591 H         1 MOL         0.3101
     33 H5         -3.9575    2.2489    2.6274 H         1 MOL         0.1410
     34 H6         -4.4584    0.1101    3.7552 H         1 MOL         0.1378
     35 H7         -3.2648   -1.9601    3.0896 H         1 MOL         0.1360
     36 H8         -1.5724   -1.8981    1.3028 H         1 MOL         0.1467
     37 H9          1.7598   -1.3008   -1.1806 H         1 MOL         0.1544
     38 H10         3.7515   -2.1056    0.0213 H         1 MOL         0.1449
     39 H11         0.2325    0.5123    2.4465 H         1 MOL         0.1523
     40 H12         2.0676    0.0523    4.6279 H         1 MOL         0.4865
     41 H13         5.4299   -3.1578    3.3555 H         1 MOL         0.1330
     42 H14         6.2020   -1.0092    1.2882 H         1 MOL         0.1617
     43 H15         8.3349   -1.3123    0.1883 H         1 MOL         0.1438
     44 H16        10.4234   -2.6262   -0.0728 H         1 MOL         0.1387
     45 H17        10.7533   -4.6897    1.2866 H         1 MOL         0.1440
     46 H18         8.9447   -5.3591    2.8793 H         1 MOL         0.0235
@<TRIPOS>BOND
     1    1    2 1
     2    2    3 am
     3    3    4 2
     4    3    5 1
     5    5   10 ar
     6    5    6 ar
     7    6    7 ar
     8    7    8 ar
     9    8    9 ar
    10    9   10 ar
    11   10   11 1
    12   11   12 1
    13   12   17 ar
    14   12   13 ar
    15   13   14 ar
    16   14   15 ar
    17   15   20 1
    18   15   16 ar
    19   16   17 ar
    20   16   18 1
    21   18   19 1
    22   19   20 2
    23   20   21 1
    24   21   22 2
    25   22   23 1
    26   23   28 ar
    27   23   24 ar
    28   24   25 ar
    29   25   26 ar
    30   26   27 ar
    31   27   28 ar
    32    1   29 1
    33    1   30 1
    34    1   31 1
    35    2   32 1
    36    6   33 1
    37    7   34 1
    38    8   35 1
    39    9   36 1
    40   13   37 1
    41   14   38 1
    42   17   39 1
    43   18   40 1
    44   21   41 1
    45   22   42 1
    46   24   43 1
    47   25   44 1
    48   26   45 1
    49   27   46 1
@<TRIPOS>MOLECULE
~{N}-methyl-2-[[3-[(~{E})-2-(2-pyridyl)vinyl]-1~{H}-indazol-6-yl]sulfanyl]benzamide
   46    49     0     0     0
SMALL
USER_CHARGES

@<TRIPOS>ATOM
      1 C1         -1.9296   -4.5560    0.5938 C.3       1 MOL         0.0802
      2 N1         -2.1198   -3.2563    1.1966 N.am      1 MOL        -0.5743
      3 C2         -2.4565   -2.1355    0.4544 C.2       1 MOL         0.6672
      4 O1         -2.6255   -2.1229   -0.7620 O.2       1 MOL        -0.5832
      5 C3         -2.5875   -0.8916    1.2050 C.ar      1 MOL        -0.1328
      6 C4         -3.5427   -0.8455    2.2205 C.ar      1 MOL        -0.0937
      7 C5         -3.7083    0.3193    2.9698 C.ar      1 MOL        -0.1467
      8 C6         -2.9188    1.4380    2.7037 C.ar      1 MOL        -0.0974
      9 C7         -1.9636    1.3919    1.6882 C.ar      1 MOL        -0.1577
     10 C8         -1.7980    0.2271    0.9388 C.ar      1 MOL         0.0287
     11 S1         -0.5618    0.2240   -0.3504 S.3       1 MOL        -0.0864
     12 C9          0.8725   -0.3471    0.5479 C.ar      1 MOL        -0.0352
     13 C10         1.8575   -1.0770   -0.1202 C.ar      1 MOL        -0.1080
     14 C11         2.9942   -1.5392    0.5550 C.ar      1 MOL        -0.0801
     15 C12         3.1242   -1.2526    1.9242 C.ar      1 MOL        -0.1729
     16 C13         2.1285   -0.5238    2.5651 C.ar      1 MOL         0.0545
     17 C14         0.9878   -0.0537    1.9107 C.ar      1 MOL        -0.0801
     18 N2          2.5420   -0.4150    3.8654 N.pl3     1 MOL        -0.3860
     19 N3          3.7190   -1.0102    4.1207 N.2       1 MOL        -0.3947
     20 C15         4.0702   -1.5186    2.9374 C.2       1 MOL         0.3773
     21 C16         5.2721   -2.2471    2.7384 C.2       1 MOL        -0.1776
     22 C17         6.4511   -2.0789    3.4248 C.2       1 MOL        -0.1980
     23 C18         7.6926   -2.8486    3.2311 C.ar      1 MOL         0.4459
     24 C19         7.6310   -4.1655    2.8048 C.ar      1 MOL        -0.2368
     25 C20         8.8287   -4.8513    2.6355 C.ar      1 MOL        -0.0928
     26 C21        10.0341   -4.2083    2.8940 C.ar      1 MOL        -0.2453
     27 C22         9.9881   -2.8894    3.3161 C.ar      1 MOL         0.3986
     28 N4          8.8444   -2.1905    3.4920 N.ar      1 MOL        -0.6566
     29 H1         -0.8844   -4.6850    0.3009 H         1 MOL         0.0431
     30 H2         -2.5590   -4.6564   -0.2946 H         1 MOL         0.0431
     31 H3         -2.1962   -5.3443    1.3031 H         1 MOL         0.0431
     32 H4         -2.0026   -3.1610    2.2001 H         1 MOL         0.3101
     33 H5         -4.1649   -1.7101    2.4380 H         1 MOL         0.1410
     34 H6         -4.4525    0.3554    3.7603 H         1 MOL         0.1378
     35 H7         -3.0476    2.3444    3.2875 H         1 MOL         0.1360
     36 H8         -1.3591    2.2753    1.4975 H         1 MOL         0.1467
     37 H9          1.7598   -1.3008   -1.1806 H         1 MOL         0.1544
     38 H10         3.7515   -2.1056    0.0213 H         1 MOL         0.1449
     39 H11         0.2325    0.5123    2.4465 H         1 MOL         0.1523
     40 H12         2.0676    0.0523    4.6279 H         1 MOL         0.4865
     41 H13         5.2633   -3.0558    1.9762 H         1 MOL         0.1330
     42 H14         6.4908   -1.3320    4.2140 H         1 MOL         0.1617
     43 H15         6.6863   -4.6609    2.6048 H         1 MOL         0.1438
     44 H16         8.8233   -5.8846    2.3018 H         1 MOL         0.1387
     45 H17        10.9794   -4.7238    2.7693 H         1 MOL         0.1440
     46 H18        10.9003   -2.3432    3.5324 H         1 MOL         0.0235
@<TRIPOS>BOND
     1    1    2 1
     2    2    3 am
     3    3    4 2
     4    3    5 1
     5    5   10 ar
     6    5    6 ar
     7    6    7 ar
     8    7    8 ar
     9    8    9 ar
    10    9   10 ar
    11   10   11 1
    12   11   12 1
    13   12   17 ar
    14   12   13 ar
    15   13   14 ar
    16   14   15 ar
    17   15   20 1
    18   15   16 ar
    19   16   17 ar
    20   16   18 1
    21   18   19 1
    22   19   20 2
    23   20   21 1
    24   21   22 2
    25   22   23 1
    26   23   28 ar
    27   23   24 ar
    28   24   25 ar
    29   25   26 ar
    30   26   27 ar
    31   27   28 ar
    32    1   29 1
    33    1   30 1
    34    1   31 1
    35    2   32 1
    36    6   33 1
    37    7   34 1
    38    8   35 1
    39    9   36 1
    40   13   37 1
    41   14   38 1
    42   17   39 1
    43   18   40 1
    44   21   41 1
    45   22   42 1
    46   24   43 1
    47   25   44 1
    48   26   45 1
    49   27   46 1
@<TRIPOS>MOLECULE
~{N}-methyl-2-[[3-[(~{E})-2-(2-pyridyl)vinyl]-1~{H}-indazol-6-yl]sulfanyl]benzamide
   46    49     0     0     0
SMALL
USER_CHARGES

@<TRIPOS>ATOM
      1 C1         -4.2285    3.6466    0.4704 C.3       1 MOL         0.0802
      2 N1         -2.9857    3.5460   -0.2604 N.am      1 MOL        -0.5743
      3 C2         -1.8368    3.0094    0.2986 C.2       1 MOL         0.6672
      4 O1         -1.7500    2.5727    1.4432 O.2       1 MOL        -0.5832
      5 C3         -0.6564    3.0016   -0.5585 C.ar      1 MOL        -0.1328
      6 C4         -0.1856    4.2296   -1.0234 C.ar      1 MOL        -0.0937
      7 C5          0.9404    4.2790   -1.8451 C.ar      1 MOL        -0.1467
      8 C6          1.5957    3.1004   -2.2020 C.ar      1 MOL        -0.0974
      9 C7          1.1248    1.8725   -1.7371 C.ar      1 MOL        -0.1577
     10 C8         -0.0012    1.8231   -0.9153 C.ar      1 MOL         0.0287
     11 S1         -0.5618    0.2240   -0.3504 S.3       1 MOL        -0.0864
     12 C9          0.8725   -0.3471    0.5479 C.ar      1 MOL        -0.0352
     13 C10         1.8575   -1.0770   -0.1202 C.ar      1 MOL        -0.1080
     14 C11         2.9942   -1.5392    0.5550 C.ar      1 MOL        -0.0801
     15 C12         3.1242   -1.2526    1.9242 C.ar      1 MOL        -0.1729
     16 C13         2.1285   -0.5238    2.5651 C.ar      1 MOL         0.0545
     17 C14         0.9878   -0.0537    1.9107 C.ar      1 MOL        -0.0801
     18 N2          2.5420   -0.4150    3.8654 N.pl3     1 MOL        -0.3860
     19 N3          3.7190   -1.0102    4.1207 N.2       1 MOL        -0.3947
     20 C15         4.0702   -1.5186    2.9374 C.2       1 MOL         0.3773
     21 C16         5.2721   -2.2471    2.7384 C.2       1 MOL        -0.1776
     22 C17         6.2915   -1.9193    1.8765 C.2       1 MOL        -0.1980
     23 C18         7.5476   -2.6654    1.6845 C.ar      1 MOL         0.4459
     24 C19         7.5726   -4.0380    1.8718 C.ar      1 MOL        -0.2368
     25 C20         8.7805   -4.6992    1.6785 C.ar      1 MOL        -0.0928
     26 C21         9.9102   -3.9777    1.3090 C.ar      1 MOL        -0.2453
     27 C22         9.7804   -2.6078    1.1467 C.ar      1 MOL         0.3986
     28 N4          8.6241   -1.9306    1.3255 N.ar      1 MOL        -0.6566
     29 H1         -4.2794    4.6042    0.9950 H         1 MOL         0.0431
     30 H2         -4.3021    2.8391    1.2039 H         1 MOL         0.0431
     31 H3         -5.0770    3.5755   -0.2154 H         1 MOL         0.0431
     32 H4         -2.9532    3.8806   -1.2179 H         1 MOL         0.3101
     33 H5         -0.6872    5.1556   -0.7532 H         1 MOL         0.1410
     34 H6          1.3068    5.2352   -2.2077 H         1 MOL         0.1378
     35 H7          2.4725    3.1393   -2.8413 H         1 MOL         0.1360
     36 H8          1.6506    0.9662   -2.0275 H         1 MOL         0.1467
     37 H9          1.7598   -1.3008   -1.1806 H         1 MOL         0.1544
     38 H10         3.7515   -2.1056    0.0213 H         1 MOL         0.1449
     39 H11         0.2325    0.5123    2.4465 H         1 MOL         0.1523
     40 H12         2.0676    0.0523    4.6279 H         1 MOL         0.4865
     41 H13         5.4299   -3.1578    3.3555 H         1 MOL         0.1330
     42 H14         6.2020   -1.0092    1.2882 H         1 MOL         0.1617
     43 H15         6.6867   -4.5946    2.1602 H         1 MOL         0.1438
     44 H16         8.8416   -5.7748    1.8144 H         1 MOL         0.1387
     45 H17        10.8620   -4.4723    1.1536 H         1 MOL         0.1440
     46 H18        10.6319   -1.9991    0.8606 H         1 MOL         0.0235
@<TRIPOS>BOND
     1    1    2 1
     2    2    3 am
     3    3    4 2
     4    3    5 1
     5    5   10 ar
     6    5    6 ar
     7    6    7 ar
     8    7    8 ar
     9    8    9 ar
    10    9   10 ar
    11   10   11 1
    12   11   12 1
    13   12   17 ar
    14   12   13 ar
    15   13   14 ar
    16   14   15 ar
    17   15   20 1
    18   15   16 ar
    19   16   17 ar
    20   16   18 1
    21   18   19 1
    22   19   20 2
    23   20   21 1
    24   21   22 2
    25   22   23 1
    26   23   28 ar
    27   23   24 ar
    28   24   25 ar
    29   25   26 ar
    30   26   27 ar
    31   27   28 ar
    32    1   29 1
    33    1   30 1
    34    1   31 1
    35    2   32 1
    36    6   33 1
    37    7   34 1
    38    8   35 1
    39    9   36 1
    40   13   37 1
    41   14   38 1
    42   17   39 1
    43   18   40 1
    44   21   41 1
    45   22   42 1
    46   24   43 1
    47   25   44 1
    48   26   45 1
    49   27   46 1
@<TRIPOS>MOLECULE
~{N}-methyl-2-[[3-[(~{E})-2-(2-pyridyl)vinyl]-1~{H}-indazol-6-yl]sulfanyl]benzamide
   46    49     0     0     0
SMALL
USER_CHARGES

@<TRIPOS>ATOM
      1 C1          1.4086    3.8692    0.5386 C.3       1 MOL         0.0802
      2 N1          0.9435    2.9944   -0.5137 N.am      1 MOL        -0.5743
      3 C2          1.7876    2.1205   -1.1803 C.2       1 MOL         0.6672
      4 O1          2.9890    1.9963   -0.9572 O.2       1 MOL        -0.5832
      5 C3          1.1725    1.3227   -2.2352 C.ar      1 MOL        -0.1328
      6 C4          1.6738    1.4633   -3.5293 C.ar      1 MOL        -0.0937
      7 C5          1.1226    0.7228   -4.5751 C.ar      1 MOL        -0.1467
      8 C6          0.0701   -0.1581   -4.3268 C.ar      1 MOL        -0.0974
      9 C7         -0.4313   -0.2987   -3.0327 C.ar      1 MOL        -0.1577
     10 C8          0.1199    0.4417   -1.9870 C.ar      1 MOL         0.0287
     11 S1         -0.5618    0.2240   -0.3504 S.3       1 MOL        -0.0864
     12 C9          0.8725   -0.3471    0.5479 C.ar      1 MOL        -0.0352
     13 C10         1.8575   -1.0770   -0.1202 C.ar      1 MOL        -0.1080
     14 C11         2.9942   -1.5392    0.5550 C.ar      1 MOL        -0.0801
     15 C12         3.1242   -1.2526    1.9242 C.ar      1 MOL        -0.1729
     16 C13         2.1285   -0.5238    2.5651 C.ar      1 MOL         0.0545
     17 C14         0.9878   -0.0537    1.9107 C.ar      1 MOL        -0.0801
     18 N2          2.5420   -0.4150    3.8654 N.pl3     1 MOL        -0.3860
     19 N3          3.7190   -1.0102    4.1207 N.2       1 MOL        -0.3947
     20 C15         4.0702   -1.5186    2.9374 C.2       1 MOL         0.3773
     21 C16         5.2721   -2.2471    2.7384 C.2       1 MOL        -0.1776
     22 C17         5.4745   -3.2526    1.8233 C.2       1 MOL        -0.1980
     23 C18         6.7281   -3.9953    1.6038 C.ar      1 MOL         0.4459
     24 C19         6.7843   -4.9885    0.6393 C.ar      1 MOL        -0.2368
     25 C20         7.9887   -5.6616    0.4678 C.ar      1 MOL        -0.0928
     26 C21         9.0847   -5.3257    1.2548 C.ar      1 MOL        -0.2453
     27 C22         8.9256   -4.3173    2.1916 C.ar      1 MOL         0.3986
     28 N4          7.7715   -3.6411    2.3871 N.ar      1 MOL        -0.6566
     29 H1          1.7337    4.8239    0.1172 H         1 MOL         0.0431
     30 H2          2.2505    3.4121    1.0655 H         1 MOL         0.0431
     31 H3          0.6057    4.0565    1.2567 H         1 MOL         0.0431
     32 H4         -0.0369    3.0210   -0.7739 H         1 MOL         0.3101
     33 H5          2.4936    2.1467   -3.7367 H         1 MOL         0.1410
     34 H6          1.5126    0.8327   -5.5829 H         1 MOL         0.1378
     35 H7         -0.3585   -0.7347   -5.1410 H         1 MOL         0.1360
     36 H8         -1.2521   -0.9909   -2.8615 H         1 MOL         0.1467
     37 H9          1.7598   -1.3008   -1.1806 H         1 MOL         0.1544
     38 H10         3.7515   -2.1056    0.0213 H         1 MOL         0.1449
     39 H11         0.2325    0.5123    2.4465 H         1 MOL         0.1523
     40 H12         2.0676    0.0523    4.6279 H         1 MOL         0.4865
     41 H13         6.1521   -1.9665    3.3564 H         1 MOL         0.1330
     42 H14         4.6552   -3.5270    1.1632 H         1 MOL         0.1617
     43 H15         5.9246   -5.2452    0.0285 H         1 MOL         0.1438
     44 H16         8.0741   -6.4459   -0.2784 H         1 MOL         0.1387
     45 H17        10.0329   -5.8376    1.1386 H         1 MOL         0.1440
     46 H18         9.7494   -4.0184    2.8315 H         1 MOL         0.0235
@<TRIPOS>BOND
     1    1    2 1
     2    2    3 am
     3    3    4 2
     4    3    5 1
     5    5   10 ar
     6    5    6 ar
     7    6    7 ar
     8    7    8 ar
     9    8    9 ar
    10    9   10 ar
    11   10   11 1
    12   11   12 1
    13   12   17 ar
    14   12   13 ar
    15   13   14 ar
    16   14   15 ar
    17   15   20 1
    18   15   16 ar
    19   16   17 ar
    20   16   18 1
    21   18   19 1
    22   19   20 2
    23   20   21 1
    24   21   22 2
    25   22   23 1
    26   23   28 ar
    27   23   24 ar
    28   24   25 ar
    29   25   26 ar
    30   26   27 ar
    31   27   28 ar
    32    1   29 1
    33    1   30 1
    34    1   31 1
    35    2   32 1
    36    6   33 1
    37    7   34 1
    38    8   35 1
    39    9   36 1
    40   13   37 1
    41   14   38 1
    42   17   39 1
    43   18   40 1
    44   21   41 1
    45   22   42 1
    46   24   43 1
    47   25   44 1
    48   26   45 1
    49   27   46 1
@<TRIPOS>MOLECULE
~{N}-methyl-2-[[3-[(~{E})-2-(2-pyridyl)vinyl]-1~{H}-indazol-6-yl]sulfanyl]benzamide
   46    49     0     0     0
SMALL
USER_CHARGES

@<TRIPOS>ATOM
      1 C1          0.5888    0.7503   -4.3950 C.3       1 MOL         0.0802
      2 N1         -0.2539    0.0083   -3.4851 N.am      1 MOL        -0.5743
      3 C2          0.0767   -1.2594   -3.0331 C.2       1 MOL         0.6672
      4 O1          1.0925   -1.8745   -3.3466 O.2       1 MOL        -0.5832
      5 C3         -0.8896   -1.8878   -2.1392 C.ar      1 MOL        -0.1328
      6 C4         -1.4551   -3.0970   -2.5439 C.ar      1 MOL        -0.0937
      7 C5         -2.3837   -3.7410   -1.7262 C.ar      1 MOL        -0.1467
      8 C6         -2.7469   -3.1757   -0.5038 C.ar      1 MOL        -0.0974
      9 C7         -2.1814   -1.9665   -0.0992 C.ar      1 MOL        -0.1577
     10 C8         -1.2528   -1.3226   -0.9169 C.ar      1 MOL         0.0287
     11 S1         -0.5618    0.2240   -0.3504 S.3       1 MOL        -0.0864
     12 C9          0.8725   -0.3471    0.5479 C.ar      1 MOL        -0.0352
     13 C10         1.8575   -1.0770   -0.1202 C.ar      1 MOL        -0.1080
     14 C11         2.9942   -1.5392    0.5550 C.ar      1 MOL        -0.0801
     15 C12         3.1242   -1.2526    1.9242 C.ar      1 MOL        -0.1729
     16 C13         2.1285   -0.5238    2.5651 C.ar      1 MOL         0.0545
     17 C14         0.9878   -0.0537    1.9107 C.ar      1 MOL        -0.0801
     18 N2          2.5420   -0.4150    3.8654 N.pl3     1 MOL        -0.3860
     19 N3          3.7190   -1.0102    4.1207 N.2       1 MOL        -0.3947
     20 C15         4.0702   -1.5186    2.9374 C.2       1 MOL         0.3773
     21 C16         5.2721   -2.2471    2.7384 C.2       1 MOL        -0.1776
     22 C17         6.2915   -1.9193    1.8765 C.2       1 MOL        -0.1980
     23 C18         7.5476   -2.6654    1.6845 C.ar      1 MOL         0.4459
     24 C19         8.4897   -2.2120    0.7753 C.ar      1 MOL        -0.2368
     25 C20         9.6598   -2.9487    0.6287 C.ar      1 MOL        -0.0928
     26 C21         9.8493   -4.0998    1.3851 C.ar      1 MOL        -0.2453
     27 C22         8.8464   -4.4687    2.2672 C.ar      1 MOL         0.3986
     28 N4          7.6963   -3.7787    2.4370 N.ar      1 MOL        -0.6566
     29 H1          0.3112    0.5294   -5.4290 H         1 MOL         0.0431
     30 H2          1.6373    0.4782   -4.2463 H         1 MOL         0.0431
     31 H3          0.4776    1.8242   -4.2226 H         1 MOL         0.0431
     32 H4         -1.1193    0.4309   -3.1655 H         1 MOL         0.3101
     33 H5         -1.1812   -3.5483   -3.4944 H         1 MOL         0.1410
     34 H6         -2.8246   -4.6823   -2.0416 H         1 MOL         0.1378
     35 H7         -3.4695   -3.6775    0.1327 H         1 MOL         0.1360
     36 H8         -2.4788   -1.5436    0.8574 H         1 MOL         0.1467
     37 H9          1.7598   -1.3008   -1.1806 H         1 MOL         0.1544
     38 H10         3.7515   -2.1056    0.0213 H         1 MOL         0.1449
     39 H11         0.2325    0.5123    2.4465 H         1 MOL         0.1523
     40 H12         2.0676    0.0523    4.6279 H         1 MOL         0.4865
     41 H13         5.4299   -3.1578    3.3555 H         1 MOL         0.1330
     42 H14         6.2020   -1.0092    1.2882 H         1 MOL         0.1617
     43 H15         8.3349   -1.3123    0.1883 H         1 MOL         0.1438
     44 H16        10.4234   -2.6262   -0.0728 H         1 MOL         0.1387
     45 H17        10.7533   -4.6897    1.2866 H         1 MOL         0.1440
     46 H18         8.9447   -5.3591    2.8793 H         1 MOL         0.0235
@<TRIPOS>BOND
     1    1    2 1
     2    2    3 am
     3    3    4 2
     4    3    5 1
     5    5   10 ar
     6    5    6 ar
     7    6    7 ar
     8    7    8 ar
     9    8    9 ar
    10    9   10 ar
    11   10   11 1
    12   11   12 1
    13   12   17 ar
    14   12   13 ar
    15   13   14 ar
    16   14   15 ar
    17   15   20 1
    18   15   16 ar
    19   16   17 ar
    20   16   18 1
    21   18   19 1
    22   19   20 2
    23   20   21 1
    24   21   22 2
    25   22   23 1
    26   23   28 ar
    27   23   24 ar
    28   24   25 ar
    29   25   26 ar
    30   26   27 ar
    31   27   28 ar
    32    1   29 1
    33    1   30 1
    34    1   31 1
    35    2   32 1
    36    6   33 1
    37    7   34 1
    38    8   35 1
    39    9   36 1
    40   13   37 1
    41   14   38 1
    42   17   39 1
    43   18   40 1
    44   21   41 1
    45   22   42 1
    46   24   43 1
    47   25   44 1
    48   26   45 1
    49   27   46 1
@<TRIPOS>MOLECULE
~{N}-methyl-2-[[3-[(~{E})-2-(2-pyridyl)vinyl]-1~{H}-indazol-6-yl]sulfanyl]benzamide
   46    49     0     0     0
SMALL
USER_CHARGES

@<TRIPOS>ATOM
      1 C1          0.8566    4.2123   -3.1241 C.3       1 MOL         0.0802
      2 N1          0.0713    3.9684   -1.9356 N.am      1 MOL        -0.5743
      3 C2          0.4935    3.1149   -0.9288 C.2       1 MOL         0.6672
      4 O1          1.5506    2.4896   -0.9348 O.2       1 MOL        -0.5832
      5 C3         -0.4233    2.9537    0.1943 C.ar      1 MOL        -0.1328
      6 C4         -0.7601    4.0938    0.9241 C.ar      1 MOL        -0.0937
      7 C5         -1.6338    3.9959    2.0070 C.ar      1 MOL        -0.1467
      8 C6         -2.1707    2.7579    2.3602 C.ar      1 MOL        -0.0974
      9 C7         -1.8339    1.6178    1.6304 C.ar      1 MOL        -0.1577
     10 C8         -0.9602    1.7158    0.5475 C.ar      1 MOL         0.0287
     11 S1         -0.5618    0.2240   -0.3504 S.3       1 MOL        -0.0864
     12 C9          0.8725   -0.3471    0.5479 C.ar      1 MOL        -0.0352
     13 C10         1.8575   -1.0770   -0.1202 C.ar      1 MOL        -0.1080
     14 C11         2.9942   -1.5392    0.5550 C.ar      1 MOL        -0.0801
     15 C12         3.1242   -1.2526    1.9242 C.ar      1 MOL        -0.1729
     16 C13         2.1285   -0.5238    2.5651 C.ar      1 MOL         0.0545
     17 C14         0.9878   -0.0537    1.9107 C.ar      1 MOL        -0.0801
     18 N2          2.5420   -0.4150    3.8654 N.pl3     1 MOL        -0.3860
     19 N3          3.7190   -1.0102    4.1207 N.2       1 MOL        -0.3947
     20 C15         4.0702   -1.5186    2.9374 C.2       1 MOL         0.3773
     21 C16         5.2721   -2.2471    2.7384 C.2       1 MOL        -0.1776
     22 C17         6.2213   -2.5307    3.6913 C.2       1 MOL        -0.1980
     23 C18         7.4594   -3.3037    3.4886 C.ar      1 MOL         0.4459
     24 C19         8.4041   -2.8695    2.5726 C.ar      1 MOL        -0.2368
     25 C20         9.5567   -3.6312    2.4161 C.ar      1 MOL        -0.0928
     26 C21         9.7271   -4.7872    3.1698 C.ar      1 MOL        -0.2453
     27 C22         8.7234   -5.1353    4.0592 C.ar      1 MOL         0.3986
     28 N4          7.5899   -4.4208    4.2387 N.ar      1 MOL        -0.6566
     29 H1          0.5940    3.4912   -3.9025 H         1 MOL         0.0431
     30 H2          1.9223    4.1153   -2.8996 H         1 MOL         0.0431
     31 H3          0.6684    5.2212   -3.5011 H         1 MOL         0.0431
     32 H4         -0.8218    4.4394   -1.8347 H         1 MOL         0.3101
     33 H5         -0.3484    5.0648    0.6597 H         1 MOL         0.1410
     34 H6         -1.8956    4.8836    2.5757 H         1 MOL         0.1378
     35 H7         -2.8512    2.6821    3.2030 H         1 MOL         0.1360
     36 H8         -2.2638    0.6630    1.9230 H         1 MOL         0.1467
     37 H9          1.7598   -1.3008   -1.1806 H         1 MOL         0.1544
     38 H10         3.7515   -2.1056    0.0213 H         1 MOL         0.1449
     39 H11         0.2325    0.5123    2.4465 H         1 MOL         0.1523
     40 H12         2.0676    0.0523    4.6279 H         1 MOL         0.4865
     41 H13         5.4618   -2.6595    1.7240 H         1 MOL         0.1330
     42 H14         6.0533   -2.1891    4.7098 H         1 MOL         0.1617
     43 H15         8.2642   -1.9660    1.9878 H         1 MOL         0.1438
     44 H16        10.3217   -3.3244    1.7091 H         1 MOL         0.1387
     45 H17        10.6174   -5.3963    3.0636 H         1 MOL         0.1440
     46 H18         8.8071   -6.0285    4.6695 H         1 MOL         0.0235
@<TRIPOS>BOND
     1    1    2 1
     2    2    3 am
     3    3    4 2
     4    3    5 1
     5    5   10 ar
     6    5    6 ar
     7    6    7 ar
     8    7    8 ar
     9    8    9 ar
    10    9   10 ar
    11   10   11 1
    12   11   12 1
    13   12   17 ar
    14   12   13 ar
    15   13   14 ar
    16   14   15 ar
    17   15   20 1
    18   15   16 ar
    19   16   17 ar
    20   16   18 1
    21   18   19 1
    22   19   20 2
    23   20   21 1
    24   21   22 2
    25   22   23 1
    26   23   28 ar
    27   23   24 ar
    28   24   25 ar
    29   25   26 ar
    30   26   27 ar
    31   27   28 ar
    32    1   29 1
    33    1   30 1
    34    1   31 1
    35    2   32 1
    36    6   33 1
    37    7   34 1
    38    8   35 1
    39    9   36 1
    40   13   37 1
    41   14   38 1
    42   17   39 1
    43   18   40 1
    44   21   41 1
    45   22   42 1
    46   24   43 1
    47   25   44 1
    48   26   45 1
    49   27   46 1
@<TRIPOS>MOLECULE
~{N}-methyl-2-[[3-[(~{E})-2-(2-pyridyl)vinyl]-1~{H}-indazol-6-yl]sulfanyl]benzamide
   46    49     0     0     0
SMALL
USER_CHARGES

@<TRIPOS>ATOM
      1 C1         -2.9277    2.1117    2.6159 C.3       1 MOL         0.0802
      2 N1         -2.5865    0.8553    1.9883 N.am      1 MOL        -0.5743
      3 C2         -3.3802    0.2725    1.0132 C.2       1 MOL         0.6672
      4 O1         -4.4306    0.7452    0.5869 O.2       1 MOL        -0.5832
      5 C3         -2.9136   -1.0090    0.4957 C.ar      1 MOL        -0.1328
      6 C4         -3.7533   -2.1127    0.6462 C.ar      1 MOL        -0.0937
      7 C5         -3.3563   -3.3614    0.1681 C.ar      1 MOL        -0.1467
      8 C6         -2.1195   -3.5066   -0.4605 C.ar      1 MOL        -0.0974
      9 C7         -1.2798   -2.4030   -0.6109 C.ar      1 MOL        -0.1577
     10 C8         -1.6769   -1.1542   -0.1328 C.ar      1 MOL         0.0287
     11 S1         -0.5618    0.2240   -0.3504 S.3       1 MOL        -0.0864
     12 C9          0.8725   -0.3471    0.5479 C.ar      1 MOL        -0.0352
     13 C10         1.8575   -1.0770   -0.1202 C.ar      1 MOL        -0.1080
     14 C11         2.9942   -1.5392    0.5550 C.ar      1 MOL        -0.0801
     15 C12         3.1242   -1.2526    1.9242 C.ar      1 MOL        -0.1729
     16 C13         2.1285   -0.5238    2.5651 C.ar      1 MOL         0.0545
     17 C14         0.9878   -0.0537    1.9107 C.ar      1 MOL        -0.0801
     18 N2          2.5420   -0.4150    3.8654 N.pl3     1 MOL        -0.3860
     19 N3          3.7190   -1.0102    4.1207 N.2       1 MOL        -0.3947
     20 C15         4.0702   -1.5186    2.9374 C.2       1 MOL         0.3773
     21 C16         5.2721   -2.2471    2.7384 C.2       1 MOL        -0.1776
     22 C17         6.0033   -2.3127    1.5763 C.2       1 MOL        -0.1980
     23 C18         7.2613   -3.0535    1.3759 C.ar      1 MOL         0.4459
     24 C19         8.1974   -2.5934    0.4638 C.ar      1 MOL        -0.2368
     25 C20         9.3695   -3.3252    0.3093 C.ar      1 MOL        -0.0928
     26 C21         9.5669   -4.4782    1.0609 C.ar      1 MOL        -0.2453
     27 C22         8.5695   -4.8538    1.9464 C.ar      1 MOL         0.3986
     28 N4          7.4177   -4.1687    2.1238 N.ar      1 MOL        -0.6566
     29 H1         -3.5380    1.9339    3.5051 H         1 MOL         0.0431
     30 H2         -3.4921    2.7400    1.9215 H         1 MOL         0.0431
     31 H3         -2.0204    2.6447    2.9126 H         1 MOL         0.0431
     32 H4         -1.7345    0.3826    2.2721 H         1 MOL         0.3101
     33 H5         -4.7196   -2.0134    1.1345 H         1 MOL         0.1410
     34 H6         -4.0099   -4.2210    0.2858 H         1 MOL         0.1378
     35 H7         -1.8109   -4.4788   -0.8329 H         1 MOL         0.1360
     36 H8         -0.3202   -2.5386   -1.1037 H         1 MOL         0.1467
     37 H9          1.7598   -1.3008   -1.1806 H         1 MOL         0.1544
     38 H10         3.7515   -2.1056    0.0213 H         1 MOL         0.1449
     39 H11         0.2325    0.5123    2.4465 H         1 MOL         0.1523
     40 H12         2.0676    0.0523    4.6279 H         1 MOL         0.4865
     41 H13         5.6893   -2.7988    3.6082 H         1 MOL         0.1330
     42 H14         5.6588   -1.7483    0.7131 H         1 MOL         0.1617
     43 H15         8.0365   -1.6923   -0.1194 H         1 MOL         0.1438
     44 H16        10.1287   -2.9974   -0.3947 H         1 MOL         0.1387
     45 H17        10.4726   -5.0643    0.9562 H         1 MOL         0.1440
     46 H18         8.6740   -5.7459    2.5550 H         1 MOL         0.0235
@<TRIPOS>BOND
     1    1    2 1
     2    2    3 am
     3    3    4 2
     4    3    5 1
     5    5   10 ar
     6    5    6 ar
     7    6    7 ar
     8    7    8 ar
     9    8    9 ar
    10    9   10 ar
    11   10   11 1
    12   11   12 1
    13   12   17 ar
    14   12   13 ar
    15   13   14 ar
    16   14   15 ar
    17   15   20 1
    18   15   16 ar
    19   16   17 ar
    20   16   18 1
    21   18   19 1
    22   19   20 2
    23   20   21 1
    24   21   22 2
    25   22   23 1
    26   23   28 ar
    27   23   24 ar
    28   24   25 ar
    29   25   26 ar
    30   26   27 ar
    31   27   28 ar
    32    1   29 1
    33    1   30 1
    34    1   31 1
    35    2   32 1
    36    6   33 1
    37    7   34 1
    38    8   35 1
    39    9   36 1
    40   13   37 1
    41   14   38 1
    42   17   39 1
    43   18   40 1
    44   21   41 1
    45   22   42 1
    46   24   43 1
    47   25   44 1
    48   26   45 1
    49   27   46 1
@<TRIPOS>MOLECULE
~{N}-methyl-2-[[3-[(~{E})-2-(2-pyridyl)vinyl]-1~{H}-indazol-6-yl]sulfanyl]benzamide
   46    49     0     0     0
SMALL
USER_CHARGES

@<TRIPOS>ATOM
      1 C1         -5.1375    2.0171    0.8579 C.3       1 MOL         0.0802
      2 N1         -4.5603    0.7511    0.4668 N.am      1 MOL        -0.5743
      3 C2         -3.3802    0.2725    1.0132 C.2       1 MOL         0.6672
      4 O1         -2.7136    0.8540    1.8653 O.2       1 MOL        -0.5832
      5 C3         -2.9136   -1.0090    0.4957 C.ar      1 MOL        -0.1328
      6 C4         -3.7533   -2.1127    0.6462 C.ar      1 MOL        -0.0937
      7 C5         -3.3563   -3.3614    0.1681 C.ar      1 MOL        -0.1467
      8 C6         -2.1195   -3.5066   -0.4605 C.ar      1 MOL        -0.0974
      9 C7         -1.2798   -2.4030   -0.6109 C.ar      1 MOL        -0.1577
     10 C8         -1.6769   -1.1542   -0.1328 C.ar      1 MOL         0.0287
     11 S1         -0.5618    0.2240   -0.3504 S.3       1 MOL        -0.0864
     12 C9          0.8725   -0.3471    0.5479 C.ar      1 MOL        -0.0352
     13 C10         1.8575   -1.0770   -0.1202 C.ar      1 MOL        -0.1080
     14 C11         2.9942   -1.5392    0.5550 C.ar      1 MOL        -0.0801
     15 C12         3.1242   -1.2526    1.9242 C.ar      1 MOL        -0.1729
     16 C13         2.1285   -0.5238    2.5651 C.ar      1 MOL         0.0545
     17 C14         0.9878   -0.0537    1.9107 C.ar      1 MOL        -0.0801
     18 N2          2.5420   -0.4150    3.8654 N.pl3     1 MOL        -0.3860
     19 N3          3.7190   -1.0102    4.1207 N.2       1 MOL        -0.3947
     20 C15         4.0702   -1.5186    2.9374 C.2       1 MOL         0.3773
     21 C16         5.2721   -2.2471    2.7384 C.2       1 MOL        -0.1776
     22 C17         5.3756   -3.5472    2.3043 C.2       1 MOL        -0.1980
     23 C18         6.6241   -4.2968    2.0793 C.ar      1 MOL         0.4459
     24 C19         7.7499   -4.0085    2.8340 C.ar      1 MOL        -0.2368
     25 C20         8.9046   -4.7424    2.5864 C.ar      1 MOL        -0.0928
     26 C21         8.8983   -5.7282    1.6059 C.ar      1 MOL        -0.2453
     27 C22         7.7212   -5.9396    0.9063 C.ar      1 MOL         0.3986
     28 N4          6.5798   -5.2468    1.1186 N.ar      1 MOL        -0.6566
     29 H1         -4.7539    2.8179    0.2203 H         1 MOL         0.0431
     30 H2         -4.8841    2.2430    1.8973 H         1 MOL         0.0431
     31 H3         -6.2260    1.9819    0.7623 H         1 MOL         0.0431
     32 H4         -5.0367    0.1923   -0.2335 H         1 MOL         0.3101
     33 H5         -4.7196   -2.0134    1.1345 H         1 MOL         0.1410
     34 H6         -4.0099   -4.2210    0.2858 H         1 MOL         0.1378
     35 H7         -1.8109   -4.4788   -0.8329 H         1 MOL         0.1360
     36 H8         -0.3202   -2.5386   -1.1037 H         1 MOL         0.1467
     37 H9          1.7598   -1.3008   -1.1806 H         1 MOL         0.1544
     38 H10         3.7515   -2.1056    0.0213 H         1 MOL         0.1449
     39 H11         0.2325    0.5123    2.4465 H         1 MOL         0.1523
     40 H12         2.0676    0.0523    4.6279 H         1 MOL         0.4865
     41 H13         6.2315   -1.7162    2.9193 H         1 MOL         0.1330
     42 H14         4.4637   -4.0901    2.0677 H         1 MOL         0.1617
     43 H15         7.7473   -3.2376    3.5979 H         1 MOL         0.1438
     44 H16         9.8077   -4.5477    3.1571 H         1 MOL         0.1387
     45 H17         9.7871   -6.3118    1.3958 H         1 MOL         0.1440
     46 H18         7.6642   -6.6958    0.1303 H         1 MOL         0.0235
@<TRIPOS>BOND
     1    1    2 1
     2    2    3 am
     3    3    4 2
     4    3    5 1
     5    5   10 ar
     6    5    6 ar
     7    6    7 ar
     8    7    8 ar
     9    8    9 ar
    10    9   10 ar
    11   10   11 1
    12   11   12 1
    13   12   17 ar
    14   12   13 ar
    15   13   14 ar
    16   14   15 ar
    17   15   20 1
    18   15   16 ar
    19   16   17 ar
    20   16   18 1
    21   18   19 1
    22   19   20 2
    23   20   21 1
    24   21   22 2
    25   22   23 1
    26   23   28 ar
    27   23   24 ar
    28   24   25 ar
    29   25   26 ar
    30   26   27 ar
    31   27   28 ar
    32    1   29 1
    33    1   30 1
    34    1   31 1
    35    2   32 1
    36    6   33 1
    37    7   34 1
    38    8   35 1
    39    9   36 1
    40   13   37 1
    41   14   38 1
    42   17   39 1
    43   18   40 1
    44   21   41 1
    45   22   42 1
    46   24   43 1
    47   25   44 1
    48   26   45 1
    49   27   46 1
@<TRIPOS>MOLECULE
~{N}-methyl-2-[[3-[(~{E})-2-(2-pyridyl)vinyl]-1~{H}-indazol-6-yl]sulfanyl]benzamide
   46    49     0     0     0
SMALL
USER_CHARGES

@<TRIPOS>ATOM
      1 C1         -2.7877   -1.3736   -3.5835 C.3       1 MOL         0.0802
      2 N1         -1.6306   -0.5940   -3.2063 N.am      1 MOL        -0.5743
      3 C2         -1.6252    0.7914   -3.2405 C.2       1 MOL         0.6672
      4 O1         -2.5752    1.4896   -3.5850 O.2       1 MOL        -0.5832
      5 C3         -0.3728    1.4321   -2.8548 C.ar      1 MOL        -0.1328
      6 C4          0.2554    2.2459   -3.7977 C.ar      1 MOL        -0.0937
      7 C5          1.4547    2.8834   -3.4801 C.ar      1 MOL        -0.1467
      8 C6          2.0258    2.7072   -2.2198 C.ar      1 MOL        -0.0974
      9 C7          1.3976    1.8934   -1.2770 C.ar      1 MOL        -0.1577
     10 C8          0.1983    1.2559   -1.5946 C.ar      1 MOL         0.0287
     11 S1         -0.5618    0.2240   -0.3504 S.3       1 MOL        -0.0864
     12 C9          0.8725   -0.3471    0.5479 C.ar      1 MOL        -0.0352
     13 C10         1.8575   -1.0770   -0.1202 C.ar      1 MOL        -0.1080
     14 C11         2.9942   -1.5392    0.5550 C.ar      1 MOL        -0.0801
     15 C12         3.1242   -1.2526    1.9242 C.ar      1 MOL        -0.1729
     16 C13         2.1285   -0.5238    2.5651 C.ar      1 MOL         0.0545
     17 C14         0.9878   -0.0537    1.9107 C.ar      1 MOL        -0.0801
     18 N2          2.5420   -0.4150    3.8654 N.pl3     1 MOL        -0.3860
     19 N3          3.7190   -1.0102    4.1207 N.2       1 MOL        -0.3947
     20 C15         4.0702   -1.5186    2.9374 C.2       1 MOL         0.3773
     21 C16         5.2721   -2.2471    2.7384 C.2       1 MOL        -0.1776
     22 C17         6.4511   -2.0789    3.4248 C.2       1 MOL        -0.1980
     23 C18         7.6926   -2.8486    3.2311 C.ar      1 MOL         0.4459
     24 C19         7.6310   -4.1655    2.8048 C.ar      1 MOL        -0.2368
     25 C20         8.8287   -4.8513    2.6355 C.ar      1 MOL        -0.0928
     26 C21        10.0341   -4.2083    2.8940 C.ar      1 MOL        -0.2453
     27 C22         9.9881   -2.8894    3.3161 C.ar      1 MOL         0.3986
     28 N4          8.8444   -2.1905    3.4920 N.ar      1 MOL        -0.6566
     29 H1         -2.7550   -1.6015   -4.6521 H         1 MOL         0.0431
     30 H2         -3.7043   -0.8170   -3.3702 H         1 MOL         0.0431
     31 H3         -2.8096   -2.3126   -3.0239 H         1 MOL         0.0431
     32 H4         -0.7915   -1.0788   -2.9054 H         1 MOL         0.3101
     33 H5         -0.1787    2.3914   -4.7838 H         1 MOL         0.1410
     34 H6          1.9443    3.5167   -4.2145 H         1 MOL         0.1378
     35 H7          2.9593    3.2040   -1.9727 H         1 MOL         0.1360
     36 H8          1.8602    1.7698   -0.3008 H         1 MOL         0.1467
     37 H9          1.7598   -1.3008   -1.1806 H         1 MOL         0.1544
     38 H10         3.7515   -2.1056    0.0213 H         1 MOL         0.1449
     39 H11         0.2325    0.5123    2.4465 H         1 MOL         0.1523
     40 H12         2.0676    0.0523    4.6279 H         1 MOL         0.4865
     41 H13         5.2633   -3.0558    1.9762 H         1 MOL         0.1330
     42 H14         6.4908   -1.3320    4.2140 H         1 MOL         0.1617
     43 H15         6.6863   -4.6609    2.6048 H         1 MOL         0.1438
     44 H16         8.8233   -5.8846    2.3018 H         1 MOL         0.1387
     45 H17        10.9794   -4.7238    2.7693 H         1 MOL         0.1440
     46 H18        10.9003   -2.3432    3.5324 H         1 MOL         0.0235
@<TRIPOS>BOND
     1    1    2 1
     2    2    3 am
     3    3    4 2
     4    3    5 1
     5    5   10 ar
     6    5    6 ar
     7    6    7 ar
     8    7    8 ar
     9    8    9 ar
    10    9   10 ar
    11   10   11 1
    12   11   12 1
    13   12   17 ar
    14   12   13 ar
    15   13   14 ar
    16   14   15 ar
    17   15   20 1
    18   15   16 ar
    19   16   17 ar
    20   16   18 1
    21   18   19 1
    22   19   20 2
    23   20   21 1
    24   21   22 2
    25   22   23 1
    26   23   28 ar
    27   23   24 ar
    28   24   25 ar
    29   25   26 ar
    30   26   27 ar
    31   27   28 ar
    32    1   29 1
    33    1   30 1
    34    1   31 1
    35    2   32 1
    36    6   33 1
    37    7   34 1
    38    8   35 1
    39    9   36 1
    40   13   37 1
    41   14   38 1
    42   17   39 1
    43   18   40 1
    44   21   41 1
    45   22   42 1
    46   24   43 1
    47   25   44 1
    48   26   45 1
    49   27   46 1
@<TRIPOS>MOLECULE
~{N}-methyl-2-[[3-[(~{E})-2-(2-pyridyl)vinyl]-1~{H}-indazol-6-yl]sulfanyl]benzamide
   46    49     0     0     0
SMALL
USER_CHARGES

@<TRIPOS>ATOM
      1 C1         -4.3195    3.5526    0.4450 C.3       1 MOL         0.0802
      2 N1         -3.9193    2.2419    0.9041 N.am      1 MOL        -0.5743
      3 C2         -3.4955    1.2483    0.0361 C.2       1 MOL         0.6672
      4 O1         -3.4154    1.3679   -1.1836 O.2       1 MOL        -0.5832
      5 C3         -3.1503   -0.0286    0.6511 C.ar      1 MOL        -0.1328
      6 C4         -4.1477   -0.6953    1.3627 C.ar      1 MOL        -0.0937
      7 C5         -3.8713   -1.9205    1.9694 C.ar      1 MOL        -0.1467
      8 C6         -2.5974   -2.4790    1.8647 C.ar      1 MOL        -0.0974
      9 C7         -1.5999   -1.8122    1.1532 C.ar      1 MOL        -0.1577
     10 C8         -1.8764   -0.5870    0.5464 C.ar      1 MOL         0.0287
     11 S1         -0.5618    0.2240   -0.3504 S.3       1 MOL        -0.0864
     12 C9          0.8725   -0.3471    0.5479 C.ar      1 MOL        -0.0352
     13 C10         1.8575   -1.0770   -0.1202 C.ar      1 MOL        -0.1080
     14 C11         2.9942   -1.5392    0.5550 C.ar      1 MOL        -0.0801
     15 C12         3.1242   -1.2526    1.9242 C.ar      1 MOL        -0.1729
     16 C13         2.1285   -0.5238    2.5651 C.ar      1 MOL         0.0545
     17 C14         0.9878   -0.0537    1.9107 C.ar      1 MOL        -0.0801
     18 N2          2.5420   -0.4150    3.8654 N.pl3     1 MOL        -0.3860
     19 N3          3.7190   -1.0102    4.1207 N.2       1 MOL        -0.3947
     20 C15         4.0702   -1.5186    2.9374 C.2       1 MOL         0.3773
     21 C16         5.2721   -2.2471    2.7384 C.2       1 MOL        -0.1776
     22 C17         5.3756   -3.5472    2.3043 C.2       1 MOL        -0.1980
     23 C18         6.6241   -4.2968    2.0793 C.ar      1 MOL         0.4459
     24 C19         6.5734   -5.6089    1.6371 C.ar      1 MOL        -0.2368
     25 C20         7.7773   -6.2756    1.4384 C.ar      1 MOL        -0.0928
     26 C21         8.9780   -5.6190    1.6844 C.ar      1 MOL        -0.2453
     27 C22         8.9211   -4.3064    2.1243 C.ar      1 MOL         0.3986
     28 N4          7.7710   -3.6259    2.3289 N.ar      1 MOL        -0.6566
     29 H1         -5.3912    3.5643    0.2298 H         1 MOL         0.0431
     30 H2         -3.7749    3.8167   -0.4656 H         1 MOL         0.0431
     31 H3         -4.1062    4.3029    1.2110 H         1 MOL         0.0431
     32 H4         -3.9498    2.0420    1.8986 H         1 MOL         0.3101
     33 H5         -5.1447   -0.2710    1.4525 H         1 MOL         0.1410
     34 H6         -4.6478   -2.4395    2.5241 H         1 MOL         0.1378
     35 H7         -2.3826   -3.4330    2.3368 H         1 MOL         0.1360
     36 H8         -0.6140   -2.2654    1.0842 H         1 MOL         0.1467
     37 H9          1.7598   -1.3008   -1.1806 H         1 MOL         0.1544
     38 H10         3.7515   -2.1056    0.0213 H         1 MOL         0.1449
     39 H11         0.2325    0.5123    2.4465 H         1 MOL         0.1523
     40 H12         2.0676    0.0523    4.6279 H         1 MOL         0.4865
     41 H13         6.2315   -1.7162    2.9193 H         1 MOL         0.1330
     42 H14         4.4637   -4.0901    2.0677 H         1 MOL         0.1617
     43 H15         5.6323   -6.1150    1.4470 H         1 MOL         0.1438
     44 H16         7.7804   -7.3046    1.0914 H         1 MOL         0.1387
     45 H17         9.9280   -6.1195    1.5368 H         1 MOL         0.1440
     46 H18         9.8293   -3.7501    2.3320 H         1 MOL         0.0235
@<TRIPOS>BOND
     1    1    2 1
     2    2    3 am
     3    3    4 2
     4    3    5 1
     5    5   10 ar
     6    5    6 ar
     7    6    7 ar
     8    7    8 ar
     9    8    9 ar
    10    9   10 ar
    11   10   11 1
    12   11   12 1
    13   12   17 ar
    14   12   13 ar
    15   13   14 ar
    16   14   15 ar
    17   15   20 1
    18   15   16 ar
    19   16   17 ar
    20   16   18 1
    21   18   19 1
    22   19   20 2
    23   20   21 1
    24   21   22 2
    25   22   23 1
    26   23   28 ar
    27   23   24 ar
    28   24   25 ar
    29   25   26 ar
    30   26   27 ar
    31   27   28 ar
    32    1   29 1
    33    1   30 1
    34    1   31 1
    35    2   32 1
    36    6   33 1
    37    7   34 1
    38    8   35 1
    39    9   36 1
    40   13   37 1
    41   14   38 1
    42   17   39 1
    43   18   40 1
    44   21   41 1
    45   22   42 1
    46   24   43 1
    47   25   44 1
    48   26   45 1
    49   27   46 1
@<TRIPOS>MOLECULE
~{N}-methyl-2-[[3-[(~{E})-2-(2-pyridyl)vinyl]-1~{H}-indazol-6-yl]sulfanyl]benzamide
   46    49     0     0     0
SMALL
USER_CHARGES

@<TRIPOS>ATOM
      1 C1         -4.4394   -2.7851    0.8831 C.3       1 MOL         0.0802
      2 N1         -3.5815   -2.5700   -0.2600 N.am      1 MOL        -0.5743
      3 C2         -2.2077   -2.4316   -0.1420 C.2       1 MOL         0.6672
      4 O1         -1.5853   -2.4751    0.9159 O.2       1 MOL        -0.5832
      5 C3         -1.4834   -2.1938   -1.3857 C.ar      1 MOL        -0.1328
      6 C4         -1.5769   -3.1626   -2.3849 C.ar      1 MOL        -0.0937
      7 C5         -0.9050   -2.9843   -3.5942 C.ar      1 MOL        -0.1467
      8 C6         -0.1395   -1.8374   -3.8043 C.ar      1 MOL        -0.0974
      9 C7         -0.0460   -0.8686   -2.8050 C.ar      1 MOL        -0.1577
     10 C8         -0.7179   -1.0469   -1.5957 C.ar      1 MOL         0.0287
     11 S1         -0.5618    0.2240   -0.3504 S.3       1 MOL        -0.0864
     12 C9          0.8725   -0.3471    0.5479 C.ar      1 MOL        -0.0352
     13 C10         1.8575   -1.0770   -0.1202 C.ar      1 MOL        -0.1080
     14 C11         2.9942   -1.5392    0.5550 C.ar      1 MOL        -0.0801
     15 C12         3.1242   -1.2526    1.9242 C.ar      1 MOL        -0.1729
     16 C13         2.1285   -0.5238    2.5651 C.ar      1 MOL         0.0545
     17 C14         0.9878   -0.0537    1.9107 C.ar      1 MOL        -0.0801
     18 N2          2.5420   -0.4150    3.8654 N.pl3     1 MOL        -0.3860
     19 N3          3.7190   -1.0102    4.1207 N.2       1 MOL        -0.3947
     20 C15         4.0702   -1.5186    2.9374 C.2       1 MOL         0.3773
     21 C16         5.2721   -2.2471    2.7384 C.2       1 MOL        -0.1776
     22 C17         6.2915   -1.9193    1.8765 C.2       1 MOL        -0.1980
     23 C18         7.5476   -2.6654    1.6845 C.ar      1 MOL         0.4459
     24 C19         8.4897   -2.2120    0.7753 C.ar      1 MOL        -0.2368
     25 C20         9.6598   -2.9487    0.6287 C.ar      1 MOL        -0.0928
     26 C21         9.8493   -4.0998    1.3851 C.ar      1 MOL        -0.2453
     27 C22         8.8464   -4.4687    2.2672 C.ar      1 MOL         0.3986
     28 N4          7.6963   -3.7787    2.4370 N.ar      1 MOL        -0.6566
     29 H1         -4.7738   -1.8262    1.2875 H         1 MOL         0.0431
     30 H2         -3.8995   -3.3273    1.6641 H         1 MOL         0.0431
     31 H3         -5.3164   -3.3698    0.5928 H         1 MOL         0.0431
     32 H4         -4.0006   -2.5185   -1.1828 H         1 MOL         0.3101
     33 H5         -2.1698   -4.0614   -2.2340 H         1 MOL         0.1410
     34 H6         -0.9774   -3.7390   -4.3722 H         1 MOL         0.1378
     35 H7          0.3831   -1.6987   -4.7459 H         1 MOL         0.1360
     36 H8          0.5562    0.0176   -2.9897 H         1 MOL         0.1467
     37 H9          1.7598   -1.3008   -1.1806 H         1 MOL         0.1544
     38 H10         3.7515   -2.1056    0.0213 H         1 MOL         0.1449
     39 H11         0.2325    0.5123    2.4465 H         1 MOL         0.1523
     40 H12         2.0676    0.0523    4.6279 H         1 MOL         0.4865
     41 H13         5.4299   -3.1578    3.3555 H         1 MOL         0.1330
     42 H14         6.2020   -1.0092    1.2882 H         1 MOL         0.1617
     43 H15         8.3349   -1.3123    0.1883 H         1 MOL         0.1438
     44 H16        10.4234   -2.6262   -0.0728 H         1 MOL         0.1387
     45 H17        10.7533   -4.6897    1.2866 H         1 MOL         0.1440
     46 H18         8.9447   -5.3591    2.8793 H         1 MOL         0.0235
@<TRIPOS>BOND
     1    1    2 1
     2    2    3 am
     3    3    4 2
     4    3    5 1
     5    5   10 ar
     6    5    6 ar
     7    6    7 ar
     8    7    8 ar
     9    8    9 ar
    10    9   10 ar
    11   10   11 1
    12   11   12 1
    13   12   17 ar
    14   12   13 ar
    15   13   14 ar
    16   14   15 ar
    17   15   20 1
    18   15   16 ar
    19   16   17 ar
    20   16   18 1
    21   18   19 1
    22   19   20 2
    23   20   21 1
    24   21   22 2
    25   22   23 1
    26   23   28 ar
    27   23   24 ar
    28   24   25 ar
    29   25   26 ar
    30   26   27 ar
    31   27   28 ar
    32    1   29 1
    33    1   30 1
    34    1   31 1
    35    2   32 1
    36    6   33 1
    37    7   34 1
    38    8   35 1
    39    9   36 1
    40   13   37 1
    41   14   38 1
    42   17   39 1
    43   18   40 1
    44   21   41 1
    45   22   42 1
    46   24   43 1
    47   25   44 1
    48   26   45 1
    49   27   46 1
@<TRIPOS>MOLECULE
~{N}-methyl-2-[[3-[(~{E})-2-(2-pyridyl)vinyl]-1~{H}-indazol-6-yl]sulfanyl]benzamide
   46    49     0     0     0
SMALL
USER_CHARGES

@<TRIPOS>ATOM
      1 C1          0.2141    4.2336    2.6750 C.3       1 MOL         0.0802
      2 N1         -0.5568    3.0112    2.6746 N.am      1 MOL        -0.5743
      3 C2         -1.2808    2.5901    1.5705 C.2       1 MOL         0.6672
      4 O1         -1.3456    3.1914    0.5015 O.2       1 MOL        -0.5832
      5 C3         -2.0281    1.3483    1.7360 C.ar      1 MOL        -0.1328
      6 C4         -3.0027    1.3070    2.7331 C.ar      1 MOL        -0.0937
      7 C5         -3.7472    0.1445    2.9329 C.ar      1 MOL        -0.1467
      8 C6         -3.5172   -0.9767    2.1357 C.ar      1 MOL        -0.0974
      9 C7         -2.5425   -0.9354    1.1386 C.ar      1 MOL        -0.1577
     10 C8         -1.7980    0.2271    0.9388 C.ar      1 MOL         0.0287
     11 S1         -0.5618    0.2240   -0.3504 S.3       1 MOL        -0.0864
     12 C9          0.8725   -0.3471    0.5479 C.ar      1 MOL        -0.0352
     13 C10         1.8575   -1.0770   -0.1202 C.ar      1 MOL        -0.1080
     14 C11         2.9942   -1.5392    0.5550 C.ar      1 MOL        -0.0801
     15 C12         3.1242   -1.2526    1.9242 C.ar      1 MOL        -0.1729
     16 C13         2.1285   -0.5238    2.5651 C.ar      1 MOL         0.0545
     17 C14         0.9878   -0.0537    1.9107 C.ar      1 MOL        -0.0801
     18 N2          2.5420   -0.4150    3.8654 N.pl3     1 MOL        -0.3860
     19 N3          3.7190   -1.0102    4.1207 N.2       1 MOL        -0.3947
     20 C15         4.0702   -1.5186    2.9374 C.2       1 MOL         0.3773
     21 C16         5.2721   -2.2471    2.7384 C.2       1 MOL        -0.1776
     22 C17         6.2915   -1.9193    1.8765 C.2       1 MOL        -0.1980
     23 C18         7.5476   -2.6654    1.6845 C.ar      1 MOL         0.4459
     24 C19         8.4897   -2.2120    0.7753 C.ar      1 MOL        -0.2368
     25 C20         9.6598   -2.9487    0.6287 C.ar      1 MOL        -0.0928
     26 C21         9.8493   -4.0998    1.3851 C.ar      1 MOL        -0.2453
     27 C22         8.8464   -4.4687    2.2672 C.ar      1 MOL         0.3986
     28 N4          7.6963   -3.7787    2.4370 N.ar      1 MOL        -0.6566
     29 H1         -0.4048    5.0680    3.0153 H         1 MOL         0.0431
     30 H2          0.5763    4.4524    1.6668 H         1 MOL         0.0431
     31 H3          1.0741    4.1379    3.3432 H         1 MOL         0.0431
     32 H4         -0.5684    2.4403    3.5134 H         1 MOL         0.3101
     33 H5         -3.1919    2.1737    3.3617 H         1 MOL         0.1410
     34 H6         -4.5058    0.1121    3.7097 H         1 MOL         0.1378
     35 H7         -4.0972   -1.8814    2.2912 H         1 MOL         0.1360
     36 H8         -2.3795   -1.8207    0.5288 H         1 MOL         0.1467
     37 H9          1.7598   -1.3008   -1.1806 H         1 MOL         0.1544
     38 H10         3.7515   -2.1056    0.0213 H         1 MOL         0.1449
     39 H11         0.2325    0.5123    2.4465 H         1 MOL         0.1523
     40 H12         2.0676    0.0523    4.6279 H         1 MOL         0.4865
     41 H13         5.4299   -3.1578    3.3555 H         1 MOL         0.1330
     42 H14         6.2020   -1.0092    1.2882 H         1 MOL         0.1617
     43 H15         8.3349   -1.3123    0.1883 H         1 MOL         0.1438
     44 H16        10.4234   -2.6262   -0.0728 H         1 MOL         0.1387
     45 H17        10.7533   -4.6897    1.2866 H         1 MOL         0.1440
     46 H18         8.9447   -5.3591    2.8793 H         1 MOL         0.0235
@<TRIPOS>BOND
     1    1    2 1
     2    2    3 am
     3    3    4 2
     4    3    5 1
     5    5   10 ar
     6    5    6 ar
     7    6    7 ar
     8    7    8 ar
     9    8    9 ar
    10    9   10 ar
    11   10   11 1
    12   11   12 1
    13   12   17 ar
    14   12   13 ar
    15   13   14 ar
    16   14   15 ar
    17   15   20 1
    18   15   16 ar
    19   16   17 ar
    20   16   18 1
    21   18   19 1
    22   19   20 2
    23   20   21 1
    24   21   22 2
    25   22   23 1
    26   23   28 ar
    27   23   24 ar
    28   24   25 ar
    29   25   26 ar
    30   26   27 ar
    31   27   28 ar
    32    1   29 1
    33    1   30 1
    34    1   31 1
    35    2   32 1
    36    6   33 1
    37    7   34 1
    38    8   35 1
    39    9   36 1
    40   13   37 1
    41   14   38 1
    42   17   39 1
    43   18   40 1
    44   21   41 1
    45   22   42 1
    46   24   43 1
    47   25   44 1
    48   26   45 1
    49   27   46 1
@<TRIPOS>MOLECULE
~{N}-methyl-2-[[3-[(~{E})-2-(2-pyridyl)vinyl]-1~{H}-indazol-6-yl]sulfanyl]benzamide
   46    49     0     0     0
SMALL
USER_CHARGES

@<TRIPOS>ATOM
      1 C1         -2.7029   -1.0582    4.0522 C.3       1 MOL         0.0802
      2 N1         -2.1715    0.1361    3.4357 N.am      1 MOL        -0.5743
      3 C2         -2.4594    0.4871    2.1264 C.2       1 MOL         0.6672
      4 O1         -3.1770   -0.1587    1.3672 O.2       1 MOL        -0.5832
      5 C3         -1.8256    1.7082    1.6414 C.ar      1 MOL        -0.1328
      6 C4         -2.1108    2.8968    2.3134 C.ar      1 MOL        -0.0937
      7 C5         -1.5304    4.0929    1.8917 C.ar      1 MOL        -0.1467
      8 C6         -0.6649    4.1006    0.7978 C.ar      1 MOL        -0.0974
      9 C7         -0.3798    2.9120    0.1257 C.ar      1 MOL        -0.1577
     10 C8         -0.9602    1.7158    0.5475 C.ar      1 MOL         0.0287
     11 S1         -0.5618    0.2240   -0.3504 S.3       1 MOL        -0.0864
     12 C9          0.8725   -0.3471    0.5479 C.ar      1 MOL        -0.0352
     13 C10         1.8575   -1.0770   -0.1202 C.ar      1 MOL        -0.1080
     14 C11         2.9942   -1.5392    0.5550 C.ar      1 MOL        -0.0801
     15 C12         3.1242   -1.2526    1.9242 C.ar      1 MOL        -0.1729
     16 C13         2.1285   -0.5238    2.5651 C.ar      1 MOL         0.0545
     17 C14         0.9878   -0.0537    1.9107 C.ar      1 MOL        -0.0801
     18 N2          2.5420   -0.4150    3.8654 N.pl3     1 MOL        -0.3860
     19 N3          3.7190   -1.0102    4.1207 N.2       1 MOL        -0.3947
     20 C15         4.0702   -1.5186    2.9374 C.2       1 MOL         0.3773
     21 C16         5.2721   -2.2471    2.7384 C.2       1 MOL        -0.1776
     22 C17         5.4745   -3.2526    1.8233 C.2       1 MOL        -0.1980
     23 C18         6.7281   -3.9953    1.6038 C.ar      1 MOL         0.4459
     24 C19         6.7843   -4.9885    0.6393 C.ar      1 MOL        -0.2368
     25 C20         7.9887   -5.6616    0.4678 C.ar      1 MOL        -0.0928
     26 C21         9.0847   -5.3257    1.2548 C.ar      1 MOL        -0.2453
     27 C22         8.9256   -4.3173    2.1916 C.ar      1 MOL         0.3986
     28 N4          7.7715   -3.6411    2.3871 N.ar      1 MOL        -0.6566
     29 H1         -2.0232   -1.8989    3.8904 H         1 MOL         0.0431
     30 H2         -3.6768   -1.3050    3.6207 H         1 MOL         0.0431
     31 H3         -2.8247   -0.9061    5.1280 H         1 MOL         0.0431
     32 H4         -1.5652    0.7396    3.9816 H         1 MOL         0.3101
     33 H5         -2.7840    2.9049    3.1672 H         1 MOL         0.1410
     34 H6         -1.7529    5.0187    2.4146 H         1 MOL         0.1378
     35 H7         -0.2129    5.0319    0.4699 H         1 MOL         0.1360
     36 H8          0.2974    2.9406   -0.7244 H         1 MOL         0.1467
     37 H9          1.7598   -1.3008   -1.1806 H         1 MOL         0.1544
     38 H10         3.7515   -2.1056    0.0213 H         1 MOL         0.1449
     39 H11         0.2325    0.5123    2.4465 H         1 MOL         0.1523
     40 H12         2.0676    0.0523    4.6279 H         1 MOL         0.4865
     41 H13         6.1521   -1.9665    3.3564 H         1 MOL         0.1330
     42 H14         4.6552   -3.5270    1.1632 H         1 MOL         0.1617
     43 H15         5.9246   -5.2452    0.0285 H         1 MOL         0.1438
     44 H16         8.0741   -6.4459   -0.2784 H         1 MOL         0.1387
     45 H17        10.0329   -5.8376    1.1386 H         1 MOL         0.1440
     46 H18         9.7494   -4.0184    2.8315 H         1 MOL         0.0235
@<TRIPOS>BOND
     1    1    2 1
     2    2    3 am
     3    3    4 2
     4    3    5 1
     5    5   10 ar
     6    5    6 ar
     7    6    7 ar
     8    7    8 ar
     9    8    9 ar
    10    9   10 ar
    11   10   11 1
    12   11   12 1
    13   12   17 ar
    14   12   13 ar
    15   13   14 ar
    16   14   15 ar
    17   15   20 1
    18   15   16 ar
    19   16   17 ar
    20   16   18 1
    21   18   19 1
    22   19   20 2
    23   20   21 1
    24   21   22 2
    25   22   23 1
    26   23   28 ar
    27   23   24 ar
    28   24   25 ar
    29   25   26 ar
    30   26   27 ar
    31   27   28 ar
    32    1   29 1
    33    1   30 1
    34    1   31 1
    35    2   32 1
    36    6   33 1
    37    7   34 1
    38    8   35 1
    39    9   36 1
    40   13   37 1
    41   14   38 1
    42   17   39 1
    43   18   40 1
    44   21   41 1
    45   22   42 1
    46   24   43 1
    47   25   44 1
    48   26   45 1
    49   27   46 1
@<TRIPOS>MOLECULE
~{N}-methyl-2-[[3-[(~{E})-2-(2-pyridyl)vinyl]-1~{H}-indazol-6-yl]sulfanyl]benzamide
   46    49     0     0     0
SMALL
USER_CHARGES

@<TRIPOS>ATOM
      1 C1          3.0326    0.9276   -3.8428 C.3       1 MOL         0.0802
      2 N1          2.0753   -0.0971   -3.4931 N.am      1 MOL        -0.5743
      3 C2          0.7541    0.1926   -3.1916 C.2       1 MOL         0.6672
      4 O1          0.2647    1.3191   -3.1884 O.2       1 MOL        -0.5832
      5 C3         -0.0811   -0.9483   -2.8327 C.ar      1 MOL        -0.1328
      6 C4         -0.2312   -1.9635   -3.7774 C.ar      1 MOL        -0.0937
      7 C5         -1.0181   -3.0775   -3.4849 C.ar      1 MOL        -0.1467
      8 C6         -1.6548   -3.1763   -2.2478 C.ar      1 MOL        -0.0974
      9 C7         -1.5047   -2.1609   -1.3032 C.ar      1 MOL        -0.1577
     10 C8         -0.7179   -1.0469   -1.5957 C.ar      1 MOL         0.0287
     11 S1         -0.5618    0.2240   -0.3504 S.3       1 MOL        -0.0864
     12 C9          0.8725   -0.3471    0.5479 C.ar      1 MOL        -0.0352
     13 C10         1.8575   -1.0770   -0.1202 C.ar      1 MOL        -0.1080
     14 C11         2.9942   -1.5392    0.5550 C.ar      1 MOL        -0.0801
     15 C12         3.1242   -1.2526    1.9242 C.ar      1 MOL        -0.1729
     16 C13         2.1285   -0.5238    2.5651 C.ar      1 MOL         0.0545
     17 C14         0.9878   -0.0537    1.9107 C.ar      1 MOL        -0.0801
     18 N2          2.5420   -0.4150    3.8654 N.pl3     1 MOL        -0.3860
     19 N3          3.7190   -1.0102    4.1207 N.2       1 MOL        -0.3947
     20 C15         4.0702   -1.5186    2.9374 C.2       1 MOL         0.3773
     21 C16         5.2721   -2.2471    2.7384 C.2       1 MOL        -0.1776
     22 C17         5.3756   -3.5472    2.3043 C.2       1 MOL        -0.1980
     23 C18         6.6241   -4.2968    2.0793 C.ar      1 MOL         0.4459
     24 C19         6.5734   -5.6089    1.6371 C.ar      1 MOL        -0.2368
     25 C20         7.7773   -6.2756    1.4384 C.ar      1 MOL        -0.0928
     26 C21         8.9780   -5.6190    1.6844 C.ar      1 MOL        -0.2453
     27 C22         8.9211   -4.3064    2.1243 C.ar      1 MOL         0.3986
     28 N4          7.7710   -3.6259    2.3289 N.ar      1 MOL        -0.6566
     29 H1          3.5305    1.2994   -2.9435 H         1 MOL         0.0431
     30 H2          2.5287    1.7628   -4.3369 H         1 MOL         0.0431
     31 H3          3.7882    0.5231   -4.5217 H         1 MOL         0.0431
     32 H4          2.3819   -1.0641   -3.4672 H         1 MOL         0.3101
     33 H5          0.2592   -1.8989   -4.7456 H         1 MOL         0.1410
     34 H6         -1.1355   -3.8680   -4.2207 H         1 MOL         0.1378
     35 H7         -2.2669   -4.0438   -2.0202 H         1 MOL         0.1360
     36 H8         -2.0100   -2.2580   -0.3453 H         1 MOL         0.1467
     37 H9          1.7598   -1.3008   -1.1806 H         1 MOL         0.1544
     38 H10         3.7515   -2.1056    0.0213 H         1 MOL         0.1449
     39 H11         0.2325    0.5123    2.4465 H         1 MOL         0.1523
     40 H12         2.0676    0.0523    4.6279 H         1 MOL         0.4865
     41 H13         6.2315   -1.7162    2.9193 H         1 MOL         0.1330
     42 H14         4.4637   -4.0901    2.0677 H         1 MOL         0.1617
     43 H15         5.6323   -6.1150    1.4470 H         1 MOL         0.1438
     44 H16         7.7804   -7.3046    1.0914 H         1 MOL         0.1387
     45 H17         9.9280   -6.1195    1.5368 H         1 MOL         0.1440
     46 H18         9.8293   -3.7501    2.3320 H         1 MOL         0.0235
@<TRIPOS>BOND
     1    1    2 1
     2    2    3 am
     3    3    4 2
     4    3    5 1
     5    5   10 ar
     6    5    6 ar
     7    6    7 ar
     8    7    8 ar
     9    8    9 ar
    10    9   10 ar
    11   10   11 1
    12   11   12 1
    13   12   17 ar
    14   12   13 ar
    15   13   14 ar
    16   14   15 ar
    17   15   20 1
    18   15   16 ar
    19   16   17 ar
    20   16   18 1
    21   18   19 1
    22   19   20 2
    23   20   21 1
    24   21   22 2
    25   22   23 1
    26   23   28 ar
    27   23   24 ar
    28   24   25 ar
    29   25   26 ar
    30   26   27 ar
    31   27   28 ar
    32    1   29 1
    33    1   30 1
    34    1   31 1
    35    2   32 1
    36    6   33 1
    37    7   34 1
    38    8   35 1
    39    9   36 1
    40   13   37 1
    41   14   38 1
    42   17   39 1
    43   18   40 1
    44   21   41 1
    45   22   42 1
    46   24   43 1
    47   25   44 1
    48   26   45 1
    49   27   46 1
@<TRIPOS>MOLECULE
~{N}-methyl-2-[[3-[(~{E})-2-(2-pyridyl)vinyl]-1~{H}-indazol-6-yl]sulfanyl]benzamide
   46    49     0     0     0
SMALL
USER_CHARGES

@<TRIPOS>ATOM
      1 C1         -1.1496    1.5346   -4.3097 C.3       1 MOL         0.0802
      2 N1         -1.0799    0.3647   -3.4640 N.am      1 MOL        -0.5743
      3 C2         -2.2121   -0.2610   -2.9670 C.2       1 MOL         0.6672
      4 O1         -3.3662    0.0988   -3.1838 O.2       1 MOL        -0.5832
      5 C3         -1.9751   -1.4148   -2.1066 C.ar      1 MOL        -0.1328
      6 C4         -2.4989   -2.6428   -2.5111 C.ar      1 MOL        -0.0937
      7 C5         -2.3003   -3.7784   -1.7258 C.ar      1 MOL        -0.1467
      8 C6         -1.5780   -3.6861   -0.5361 C.ar      1 MOL        -0.0974
      9 C7         -1.0543   -2.4582   -0.1317 C.ar      1 MOL        -0.1577
     10 C8         -1.2528   -1.3226   -0.9169 C.ar      1 MOL         0.0287
     11 S1         -0.5618    0.2240   -0.3504 S.3       1 MOL        -0.0864
     12 C9          0.8725   -0.3471    0.5479 C.ar      1 MOL        -0.0352
     13 C10         1.8575   -1.0770   -0.1202 C.ar      1 MOL        -0.1080
     14 C11         2.9942   -1.5392    0.5550 C.ar      1 MOL        -0.0801
     15 C12         3.1242   -1.2526    1.9242 C.ar      1 MOL        -0.1729
     16 C13         2.1285   -0.5238    2.5651 C.ar      1 MOL         0.0545
     17 C14         0.9878   -0.0537    1.9107 C.ar      1 MOL        -0.0801
     18 N2          2.5420   -0.4150    3.8654 N.pl3     1 MOL        -0.3860
     19 N3          3.7190   -1.0102    4.1207 N.2       1 MOL        -0.3947
     20 C15         4.0702   -1.5186    2.9374 C.2       1 MOL         0.3773
     21 C16         5.2721   -2.2471    2.7384 C.2       1 MOL        -0.1776
     22 C17         6.2213   -2.5307    3.6913 C.2       1 MOL        -0.1980
     23 C18         7.4594   -3.3037    3.4886 C.ar      1 MOL         0.4459
     24 C19         7.4562   -4.6767    3.6742 C.ar      1 MOL        -0.2368
     25 C20         8.6480   -5.3636    3.4708 C.ar      1 MOL        -0.0928
     26 C21         9.7901   -4.6663    3.0933 C.ar      1 MOL        -0.2453
     27 C22         9.6888   -3.2937    2.9336 C.ar      1 MOL         0.3986
     28 N4          8.5488   -2.5919    3.1221 N.ar      1 MOL        -0.6566
     29 H1         -1.1360    2.4411   -3.6990 H         1 MOL         0.0431
     30 H2         -2.0708    1.5208   -4.8987 H         1 MOL         0.0431
     31 H3         -0.2968    1.5581   -4.9935 H         1 MOL         0.0431
     32 H4         -0.1685   -0.0123   -3.2254 H         1 MOL         0.3101
     33 H5         -3.0642   -2.7285   -3.4358 H         1 MOL         0.1410
     34 H6         -2.7087   -4.7345   -2.0405 H         1 MOL         0.1378
     35 H7         -1.4233   -4.5705    0.0747 H         1 MOL         0.1360
     36 H8         -0.4945   -2.4088    0.7992 H         1 MOL         0.1467
     37 H9          1.7598   -1.3008   -1.1806 H         1 MOL         0.1544
     38 H10         3.7515   -2.1056    0.0213 H         1 MOL         0.1449
     39 H11         0.2325    0.5123    2.4465 H         1 MOL         0.1523
     40 H12         2.0676    0.0523    4.6279 H         1 MOL         0.4865
     41 H13         5.4618   -2.6595    1.7240 H         1 MOL         0.1330
     42 H14         6.0533   -2.1891    4.7098 H         1 MOL         0.1617
     43 H15         6.5606   -5.2144    3.9688 H         1 MOL         0.1438
     44 H16         8.6868   -6.4405    3.6050 H         1 MOL         0.1387
     45 H17        10.7298   -5.1812    2.9300 H         1 MOL         0.1440
     46 H18        10.5510   -2.7032    2.6415 H         1 MOL         0.0235
@<TRIPOS>BOND
     1    1    2 1
     2    2    3 am
     3    3    4 2
     4    3    5 1
     5    5   10 ar
     6    5    6 ar
     7    6    7 ar
     8    7    8 ar
     9    8    9 ar
    10    9   10 ar
    11   10   11 1
    12   11   12 1
    13   12   17 ar
    14   12   13 ar
    15   13   14 ar
    16   14   15 ar
    17   15   20 1
    18   15   16 ar
    19   16   17 ar
    20   16   18 1
    21   18   19 1
    22   19   20 2
    23   20   21 1
    24   21   22 2
    25   22   23 1
    26   23   28 ar
    27   23   24 ar
    28   24   25 ar
    29   25   26 ar
    30   26   27 ar
    31   27   28 ar
    32    1   29 1
    33    1   30 1
    34    1   31 1
    35    2   32 1
    36    6   33 1
    37    7   34 1
    38    8   35 1
    39    9   36 1
    40   13   37 1
    41   14   38 1
    42   17   39 1
    43   18   40 1
    44   21   41 1
    45   22   42 1
    46   24   43 1
    47   25   44 1
    48   26   45 1
    49   27   46 1
@<TRIPOS>MOLECULE
~{N}-methyl-2-[[3-[(~{E})-2-(2-pyridyl)vinyl]-1~{H}-indazol-6-yl]sulfanyl]benzamide
   46    49     0     0     0
SMALL
USER_CHARGES

@<TRIPOS>ATOM
      1 C1          2.5183    2.5104   -2.0895 C.3       1 MOL         0.0802
      2 N1          1.2859    2.5887   -1.3386 N.am      1 MOL        -0.5743
      3 C2          1.2638    2.7381    0.0390 C.2       1 MOL         0.6672
      4 O1          2.2598    2.8180    0.7532 O.2       1 MOL        -0.5832
      5 C3         -0.0586    2.7747    0.6535 C.ar      1 MOL        -0.1328
      6 C4         -0.4100    3.9213    1.3659 C.ar      1 MOL        -0.0937
      7 C5         -1.6631    4.0090    1.9722 C.ar      1 MOL        -0.1467
      8 C6         -2.5648    2.9500    1.8663 C.ar      1 MOL        -0.0974
      9 C7         -2.2133    1.8034    1.1539 C.ar      1 MOL        -0.1577
     10 C8         -0.9602    1.7158    0.5475 C.ar      1 MOL         0.0287
     11 S1         -0.5618    0.2240   -0.3504 S.3       1 MOL        -0.0864
     12 C9          0.8725   -0.3471    0.5479 C.ar      1 MOL        -0.0352
     13 C10         1.8575   -1.0770   -0.1202 C.ar      1 MOL        -0.1080
     14 C11         2.9942   -1.5392    0.5550 C.ar      1 MOL        -0.0801
     15 C12         3.1242   -1.2526    1.9242 C.ar      1 MOL        -0.1729
     16 C13         2.1285   -0.5238    2.5651 C.ar      1 MOL         0.0545
     17 C14         0.9878   -0.0537    1.9107 C.ar      1 MOL        -0.0801
     18 N2          2.5420   -0.4150    3.8654 N.pl3     1 MOL        -0.3860
     19 N3          3.7190   -1.0102    4.1207 N.2       1 MOL        -0.3947
     20 C15         4.0702   -1.5186    2.9374 C.2       1 MOL         0.3773
     21 C16         5.2721   -2.2471    2.7384 C.2       1 MOL        -0.1776
     22 C17         5.3756   -3.5472    2.3043 C.2       1 MOL        -0.1980
     23 C18         6.6241   -4.2968    2.0793 C.ar      1 MOL         0.4459
     24 C19         7.7499   -4.0085    2.8340 C.ar      1 MOL        -0.2368
     25 C20         8.9046   -4.7424    2.5864 C.ar      1 MOL        -0.0928
     26 C21         8.8983   -5.7282    1.6059 C.ar      1 MOL        -0.2453
     27 C22         7.7212   -5.9396    0.9063 C.ar      1 MOL         0.3986
     28 N4          6.5798   -5.2468    1.1186 N.ar      1 MOL        -0.6566
     29 H1          2.8412    1.4695   -2.1741 H         1 MOL         0.0431
     30 H2          3.3035    3.0828   -1.5882 H         1 MOL         0.0431
     31 H3          2.3752    2.9172   -3.0942 H         1 MOL         0.0431
     32 H4          0.4046    2.5323   -1.8384 H         1 MOL         0.3101
     33 H5          0.2835    4.7538    1.4567 H         1 MOL         0.1410
     34 H6         -1.9367    4.9016    2.5275 H         1 MOL         0.1378
     35 H7         -3.5404    3.0187    2.3380 H         1 MOL         0.1360
     36 H8         -2.9312    0.9898    1.0839 H         1 MOL         0.1467
     37 H9          1.7598   -1.3008   -1.1806 H         1 MOL         0.1544
     38 H10         3.7515   -2.1056    0.0213 H         1 MOL         0.1449
     39 H11         0.2325    0.5123    2.4465 H         1 MOL         0.1523
     40 H12         2.0676    0.0523    4.6279 H         1 MOL         0.4865
     41 H13         6.2315   -1.7162    2.9193 H         1 MOL         0.1330
     42 H14         4.4637   -4.0901    2.0677 H         1 MOL         0.1617
     43 H15         7.7473   -3.2376    3.5979 H         1 MOL         0.1438
     44 H16         9.8077   -4.5477    3.1571 H         1 MOL         0.1387
     45 H17         9.7871   -6.3118    1.3958 H         1 MOL         0.1440
     46 H18         7.6642   -6.6958    0.1303 H         1 MOL         0.0235
@<TRIPOS>BOND
     1    1    2 1
     2    2    3 am
     3    3    4 2
     4    3    5 1
     5    5   10 ar
     6    5    6 ar
     7    6    7 ar
     8    7    8 ar
     9    8    9 ar
    10    9   10 ar
    11   10   11 1
    12   11   12 1
    13   12   17 ar
    14   12   13 ar
    15   13   14 ar
    16   14   15 ar
    17   15   20 1
    18   15   16 ar
    19   16   17 ar
    20   16   18 1
    21   18   19 1
    22   19   20 2
    23   20   21 1
    24   21   22 2
    25   22   23 1
    26   23   28 ar
    27   23   24 ar
    28   24   25 ar
    29   25   26 ar
    30   26   27 ar
    31   27   28 ar
    32    1   29 1
    33    1   30 1
    34    1   31 1
    35    2   32 1
    36    6   33 1
    37    7   34 1
    38    8   35 1
    39    9   36 1
    40   13   37 1
    41   14   38 1
    42   17   39 1
    43   18   40 1
    44   21   41 1
    45   22   42 1
    46   24   43 1
    47   25   44 1
    48   26   45 1
    49   27   46 1
@<TRIPOS>MOLECULE
~{N}-methyl-2-[[3-[(~{E})-2-(2-pyridyl)vinyl]-1~{H}-indazol-6-yl]sulfanyl]benzamide
   46    49     0     0     0
SMALL
USER_CHARGES

@<TRIPOS>ATOM
      1 C1         -2.2485   -2.6172    2.2614 C.3       1 MOL         0.0802
      2 N1         -2.0391   -2.2882    0.8698 N.am      1 MOL        -0.5743
      3 C2         -1.0095   -2.8387    0.1232 C.2       1 MOL         0.6672
      4 O1         -0.1851   -3.6434    0.5491 O.2       1 MOL        -0.5832
      5 C3         -0.9150   -2.3864   -1.2604 C.ar      1 MOL        -0.1328
      6 C4         -1.0301   -3.3472   -2.2650 C.ar      1 MOL        -0.0937
      7 C5         -0.9483   -2.9685   -3.6050 C.ar      1 MOL        -0.1467
      8 C6         -0.7513   -1.6289   -3.9403 C.ar      1 MOL        -0.0974
      9 C7         -0.6361   -0.6682   -2.9356 C.ar      1 MOL        -0.1577
     10 C8         -0.7179   -1.0469   -1.5957 C.ar      1 MOL         0.0287
     11 S1         -0.5618    0.2240   -0.3504 S.3       1 MOL        -0.0864
     12 C9          0.8725   -0.3471    0.5479 C.ar      1 MOL        -0.0352
     13 C10         1.8575   -1.0770   -0.1202 C.ar      1 MOL        -0.1080
     14 C11         2.9942   -1.5392    0.5550 C.ar      1 MOL        -0.0801
     15 C12         3.1242   -1.2526    1.9242 C.ar      1 MOL        -0.1729
     16 C13         2.1285   -0.5238    2.5651 C.ar      1 MOL         0.0545
     17 C14         0.9878   -0.0537    1.9107 C.ar      1 MOL        -0.0801
     18 N2          2.5420   -0.4150    3.8654 N.pl3     1 MOL        -0.3860
     19 N3          3.7190   -1.0102    4.1207 N.2       1 MOL        -0.3947
     20 C15         4.0702   -1.5186    2.9374 C.2       1 MOL         0.3773
     21 C16         5.2721   -2.2471    2.7384 C.2       1 MOL        -0.1776
     22 C17         6.0033   -2.3127    1.5763 C.2       1 MOL        -0.1980
     23 C18         7.2613   -3.0535    1.3759 C.ar      1 MOL         0.4459
     24 C19         7.5066   -4.2092    2.0996 C.ar      1 MOL        -0.2368
     25 C20         8.7070   -4.8744    1.8761 C.ar      1 MOL        -0.0928
     26 C21         9.6123   -4.3707    0.9488 C.ar      1 MOL        -0.2453
     27 C22         9.2726   -3.2079    0.2764 C.ar      1 MOL         0.3986
     28 N4          8.1163   -2.5338    0.4667 N.ar      1 MOL        -0.6566
     29 H1         -1.6887   -1.9278    2.8988 H         1 MOL         0.0431
     30 H2         -1.9100   -3.6370    2.4638 H         1 MOL         0.0431
     31 H3         -3.3103   -2.5442    2.5114 H         1 MOL         0.0431
     32 H4         -2.6691   -1.6300    0.4229 H         1 MOL         0.3101
     33 H5         -1.1834   -4.3948   -2.0174 H         1 MOL         0.1410
     34 H6         -1.0374   -3.7168   -4.3874 H         1 MOL         0.1378
     35 H7         -0.6880   -1.3343   -4.9835 H         1 MOL         0.1360
     36 H8         -0.4827    0.3702   -3.2193 H         1 MOL         0.1467
     37 H9          1.7598   -1.3008   -1.1806 H         1 MOL         0.1544
     38 H10         3.7515   -2.1056    0.0213 H         1 MOL         0.1449
     39 H11         0.2325    0.5123    2.4465 H         1 MOL         0.1523
     40 H12         2.0676    0.0523    4.6279 H         1 MOL         0.4865
     41 H13         5.6893   -2.7988    3.6082 H         1 MOL         0.1330
     42 H14         5.6588   -1.7483    0.7131 H         1 MOL         0.1617
     43 H15         6.7951   -4.5965    2.8219 H         1 MOL         0.1438
     44 H16         8.9365   -5.7844    2.4225 H         1 MOL         0.1387
     45 H17        10.5541   -4.8726    0.7591 H         1 MOL         0.1440
     46 H18         9.9448   -2.7730   -0.4560 H         1 MOL         0.0235
@<TRIPOS>BOND
     1    1    2 1
     2    2    3 am
     3    3    4 2
     4    3    5 1
     5    5   10 ar
     6    5    6 ar
     7    6    7 ar
     8    7    8 ar
     9    8    9 ar
    10    9   10 ar
    11   10   11 1
    12   11   12 1
    13   12   17 ar
    14   12   13 ar
    15   13   14 ar
    16   14   15 ar
    17   15   20 1
    18   15   16 ar
    19   16   17 ar
    20   16   18 1
    21   18   19 1
    22   19   20 2
    23   20   21 1
    24   21   22 2
    25   22   23 1
    26   23   28 ar
    27   23   24 ar
    28   24   25 ar
    29   25   26 ar
    30   26   27 ar
    31   27   28 ar
    32    1   29 1
    33    1   30 1
    34    1   31 1
    35    2   32 1
    36    6   33 1
    37    7   34 1
    38    8   35 1
    39    9   36 1
    40   13   37 1
    41   14   38 1
    42   17   39 1
    43   18   40 1
    44   21   41 1
    45   22   42 1
    46   24   43 1
    47   25   44 1
    48   26   45 1
    49   27   46 1
@<TRIPOS>MOLECULE
~{N}-methyl-2-[[3-[(~{E})-2-(2-pyridyl)vinyl]-1~{H}-indazol-6-yl]sulfanyl]benzamide
   46    49     0     0     0
SMALL
USER_CHARGES

@<TRIPOS>ATOM
      1 C1         -4.0683    2.2507    0.8055 C.3       1 MOL         0.0802
      2 N1         -2.6880    2.4314    0.4174 N.am      1 MOL        -0.5743
      3 C2         -2.3175    2.7629   -0.8762 C.2       1 MOL         0.6672
      4 O1         -3.0983    2.9348   -1.8086 O.2       1 MOL        -0.5832
      5 C3         -0.8838    2.8845   -1.1157 C.ar      1 MOL        -0.1328
      6 C4         -0.4035    4.1166   -1.5594 C.ar      1 MOL        -0.0937
      7 C5          0.9593    4.2874   -1.8026 C.ar      1 MOL        -0.1467
      8 C6          1.8419    3.2260   -1.6022 C.ar      1 MOL        -0.0974
      9 C7          1.3616    1.9938   -1.1585 C.ar      1 MOL        -0.1577
     10 C8         -0.0012    1.8231   -0.9153 C.ar      1 MOL         0.0287
     11 S1         -0.5618    0.2240   -0.3504 S.3       1 MOL        -0.0864
     12 C9          0.8725   -0.3471    0.5479 C.ar      1 MOL        -0.0352
     13 C10         1.8575   -1.0770   -0.1202 C.ar      1 MOL        -0.1080
     14 C11         2.9942   -1.5392    0.5550 C.ar      1 MOL        -0.0801
     15 C12         3.1242   -1.2526    1.9242 C.ar      1 MOL        -0.1729
     16 C13         2.1285   -0.5238    2.5651 C.ar      1 MOL         0.0545
     17 C14         0.9878   -0.0537    1.9107 C.ar      1 MOL        -0.0801
     18 N2          2.5420   -0.4150    3.8654 N.pl3     1 MOL        -0.3860
     19 N3          3.7190   -1.0102    4.1207 N.2       1 MOL        -0.3947
     20 C15         4.0702   -1.5186    2.9374 C.2       1 MOL         0.3773
     21 C16         5.2721   -2.2471    2.7384 C.2       1 MOL        -0.1776
     22 C17         6.5500   -1.7843    2.9438 C.2       1 MOL        -0.1980
     23 C18         7.7966   -2.5471    2.7556 C.ar      1 MOL         0.4459
     24 C19         9.0200   -1.9458    3.0037 C.ar      1 MOL        -0.2368
     25 C20        10.1690   -2.7052    2.8128 C.ar      1 MOL        -0.0928
     26 C21        10.0609   -4.0241    2.3859 C.ar      1 MOL        -0.2453
     27 C22         8.7909   -4.5325    2.1657 C.ar      1 MOL         0.3986
     28 N4          7.6519   -3.8254    2.3401 N.ar      1 MOL        -0.6566
     29 H1         -4.3634    1.2070    0.6693 H         1 MOL         0.0431
     30 H2         -4.7186    2.8828    0.1948 H         1 MOL         0.0431
     31 H3         -4.2039    2.5204    1.8564 H         1 MOL         0.0431
     32 H4         -1.9635    2.3111    1.1177 H         1 MOL         0.3101
     33 H5         -1.0806    4.9520   -1.7201 H         1 MOL         0.1410
     34 H6          1.3333    5.2467   -2.1487 H         1 MOL         0.1378
     35 H7          2.9029    3.3594   -1.7912 H         1 MOL         0.1360
     36 H8          2.0669    1.1800   -1.0090 H         1 MOL         0.1467
     37 H9          1.7598   -1.3008   -1.1806 H         1 MOL         0.1544
     38 H10         3.7515   -2.1056    0.0213 H         1 MOL         0.1449
     39 H11         0.2325    0.5123    2.4465 H         1 MOL         0.1523
     40 H12         2.0676    0.0523    4.6279 H         1 MOL         0.4865
     41 H13         5.1840   -3.3061    2.4132 H         1 MOL         0.1330
     42 H14         6.6823   -0.7689    3.3094 H         1 MOL         0.1617
     43 H15         9.0966   -0.9157    3.3369 H         1 MOL         0.1438
     44 H16        11.1470   -2.2710    2.9974 H         1 MOL         0.1387
     45 H17        10.9431   -4.6342    2.2301 H         1 MOL         0.1440
     46 H18         8.6522   -5.5551    1.8306 H         1 MOL         0.0235
@<TRIPOS>BOND
     1    1    2 1
     2    2    3 am
     3    3    4 2
     4    3    5 1
     5    5   10 ar
     6    5    6 ar
     7    6    7 ar
     8    7    8 ar
     9    8    9 ar
    10    9   10 ar
    11   10   11 1
    12   11   12 1
    13   12   17 ar
    14   12   13 ar
    15   13   14 ar
    16   14   15 ar
    17   15   20 1
    18   15   16 ar
    19   16   17 ar
    20   16   18 1
    21   18   19 1
    22   19   20 2
    23   20   21 1
    24   21   22 2
    25   22   23 1
    26   23   28 ar
    27   23   24 ar
    28   24   25 ar
    29   25   26 ar
    30   26   27 ar
    31   27   28 ar
    32    1   29 1
    33    1   30 1
    34    1   31 1
    35    2   32 1
    36    6   33 1
    37    7   34 1
    38    8   35 1
    39    9   36 1
    40   13   37 1
    41   14   38 1
    42   17   39 1
    43   18   40 1
    44   21   41 1
    45   22   42 1
    46   24   43 1
    47   25   44 1
    48   26   45 1
    49   27   46 1
@<TRIPOS>MOLECULE
~{N}-methyl-2-[[3-[(~{E})-2-(2-pyridyl)vinyl]-1~{H}-indazol-6-yl]sulfanyl]benzamide
   46    49     0     0     0
SMALL
USER_CHARGES

@<TRIPOS>ATOM
      1 C1         -2.9795   -1.1866   -3.4975 C.3       1 MOL         0.0802
      2 N1         -2.0769   -0.1301   -3.1003 N.am      1 MOL        -0.5743
      3 C2         -0.7379   -0.1238   -3.4574 C.2       1 MOL         0.6672
      4 O1         -0.1862   -0.9900   -4.1311 O.2       1 MOL        -0.5832
      5 C3          0.0483    0.9984   -2.9572 C.ar      1 MOL        -0.1328
      6 C4          0.6608    1.8292   -3.8955 C.ar      1 MOL        -0.0937
      7 C5          1.4232    2.9175   -3.4711 C.ar      1 MOL        -0.1467
      8 C6          1.5731    3.1750   -2.1085 C.ar      1 MOL        -0.0974
      9 C7          0.9607    2.3442   -1.1702 C.ar      1 MOL        -0.1577
     10 C8          0.1983    1.2559   -1.5946 C.ar      1 MOL         0.0287
     11 S1         -0.5618    0.2240   -0.3504 S.3       1 MOL        -0.0864
     12 C9          0.8725   -0.3471    0.5479 C.ar      1 MOL        -0.0352
     13 C10         1.8575   -1.0770   -0.1202 C.ar      1 MOL        -0.1080
     14 C11         2.9942   -1.5392    0.5550 C.ar      1 MOL        -0.0801
     15 C12         3.1242   -1.2526    1.9242 C.ar      1 MOL        -0.1729
     16 C13         2.1285   -0.5238    2.5651 C.ar      1 MOL         0.0545
     17 C14         0.9878   -0.0537    1.9107 C.ar      1 MOL        -0.0801
     18 N2          2.5420   -0.4150    3.8654 N.pl3     1 MOL        -0.3860
     19 N3          3.7190   -1.0102    4.1207 N.2       1 MOL        -0.3947
     20 C15         4.0702   -1.5186    2.9374 C.2       1 MOL         0.3773
     21 C16         5.2721   -2.2471    2.7384 C.2       1 MOL        -0.1776
     22 C17         6.0033   -2.3127    1.5763 C.2       1 MOL        -0.1980
     23 C18         7.2613   -3.0535    1.3759 C.ar      1 MOL         0.4459
     24 C19         8.4760   -2.4334    1.6205 C.ar      1 MOL        -0.2368
     25 C20         9.6362   -3.1723    1.4179 C.ar      1 MOL        -0.0928
     26 C21         9.5475   -4.4901    0.9833 C.ar      1 MOL        -0.2453
     27 C22         8.2848   -5.0182    0.7674 C.ar      1 MOL         0.3986
     28 N4          7.1353   -4.3314    0.9531 N.ar      1 MOL        -0.6566
     29 H1         -2.9836   -1.9798   -2.7453 H         1 MOL         0.0431
     30 H2         -2.6662   -1.6113   -4.4551 H         1 MOL         0.0431
     31 H3         -3.9953   -0.7962   -3.6028 H         1 MOL         0.0431
     32 H4         -2.4368    0.6352   -2.5394 H         1 MOL         0.3101
     33 H5          0.5524    1.6396   -4.9606 H         1 MOL         0.1410
     34 H6          1.9006    3.5642   -4.2018 H         1 MOL         0.1378
     35 H7          2.1663    4.0225   -1.7784 H         1 MOL         0.1360
     36 H8          1.0907    2.5630   -0.1131 H         1 MOL         0.1467
     37 H9          1.7598   -1.3008   -1.1806 H         1 MOL         0.1544
     38 H10         3.7515   -2.1056    0.0213 H         1 MOL         0.1449
     39 H11         0.2325    0.5123    2.4465 H         1 MOL         0.1523
     40 H12         2.0676    0.0523    4.6279 H         1 MOL         0.4865
     41 H13         5.6893   -2.7988    3.6082 H         1 MOL         0.1330
     42 H14         5.6588   -1.7483    0.7131 H         1 MOL         0.1617
     43 H15         8.5374   -1.4042    1.9597 H         1 MOL         0.1438
     44 H16        10.6080   -2.7230    1.5993 H         1 MOL         0.1387
     45 H17        10.4388   -5.0844    0.8183 H         1 MOL         0.1440
     46 H18         8.1612   -6.0409    0.4267 H         1 MOL         0.0235
@<TRIPOS>BOND
     1    1    2 1
     2    2    3 am
     3    3    4 2
     4    3    5 1
     5    5   10 ar
     6    5    6 ar
     7    6    7 ar
     8    7    8 ar
     9    8    9 ar
    10    9   10 ar
    11   10   11 1
    12   11   12 1
    13   12   17 ar
    14   12   13 ar
    15   13   14 ar
    16   14   15 ar
    17   15   20 1
    18   15   16 ar
    19   16   17 ar
    20   16   18 1
    21   18   19 1
    22   19   20 2
    23   20   21 1
    24   21   22 2
    25   22   23 1
    26   23   28 ar
    27   23   24 ar
    28   24   25 ar
    29   25   26 ar
    30   26   27 ar
    31   27   28 ar
    32    1   29 1
    33    1   30 1
    34    1   31 1
    35    2   32 1
    36    6   33 1
    37    7   34 1
    38    8   35 1
    39    9   36 1
    40   13   37 1
    41   14   38 1
    42   17   39 1
    43   18   40 1
    44   21   41 1
    45   22   42 1
    46   24   43 1
    47   25   44 1
    48   26   45 1
    49   27   46 1
@<TRIPOS>MOLECULE
~{N}-methyl-2-[[3-[(~{E})-2-(2-pyridyl)vinyl]-1~{H}-indazol-6-yl]sulfanyl]benzamide
   46    49     0     0     0
SMALL
USER_CHARGES

@<TRIPOS>ATOM
      1 C1         -4.5716    2.8879   -1.9115 C.3       1 MOL         0.0802
      2 N1         -3.1756    3.1336   -1.6295 N.am      1 MOL        -0.5743
      3 C2         -2.1691    2.2891   -2.0701 C.2       1 MOL         0.6672
      4 O1         -2.3467    1.2683   -2.7296 O.2       1 MOL        -0.5832
      5 C3         -0.8127    2.6596   -1.6817 C.ar      1 MOL        -0.1328
      6 C4         -0.3344    3.9003   -2.1034 C.ar      1 MOL        -0.0937
      7 C5          0.9554    4.3043   -1.7586 C.ar      1 MOL        -0.1467
      8 C6          1.7669    3.4678   -0.9922 C.ar      1 MOL        -0.0974
      9 C7          1.2885    2.2272   -0.5706 C.ar      1 MOL        -0.1577
     10 C8         -0.0012    1.8231   -0.9153 C.ar      1 MOL         0.0287
     11 S1         -0.5618    0.2240   -0.3504 S.3       1 MOL        -0.0864
     12 C9          0.8725   -0.3471    0.5479 C.ar      1 MOL        -0.0352
     13 C10         1.8575   -1.0770   -0.1202 C.ar      1 MOL        -0.1080
     14 C11         2.9942   -1.5392    0.5550 C.ar      1 MOL        -0.0801
     15 C12         3.1242   -1.2526    1.9242 C.ar      1 MOL        -0.1729
     16 C13         2.1285   -0.5238    2.5651 C.ar      1 MOL         0.0545
     17 C14         0.9878   -0.0537    1.9107 C.ar      1 MOL        -0.0801
     18 N2          2.5420   -0.4150    3.8654 N.pl3     1 MOL        -0.3860
     19 N3          3.7190   -1.0102    4.1207 N.2       1 MOL        -0.3947
     20 C15         4.0702   -1.5186    2.9374 C.2       1 MOL         0.3773
     21 C16         5.2721   -2.2471    2.7384 C.2       1 MOL        -0.1776
     22 C17         6.2213   -2.5307    3.6913 C.2       1 MOL        -0.1980
     23 C18         7.4594   -3.3037    3.4886 C.ar      1 MOL         0.4459
     24 C19         7.5007   -4.3063    2.5332 C.ar      1 MOL        -0.2368
     25 C20         8.6909   -5.0081    2.3775 C.ar      1 MOL        -0.0928
     26 C21         9.7878   -4.6902    3.1706 C.ar      1 MOL        -0.2453
     27 C22         9.6442   -3.6702    4.0973 C.ar      1 MOL         0.3986
     28 N4          8.5042   -2.9662    4.2774 N.ar      1 MOL        -0.6566
     29 H1         -5.0134    2.2783   -1.1190 H         1 MOL         0.0431
     30 H2         -4.6777    2.3592   -2.8627 H         1 MOL         0.0431
     31 H3         -5.1169    3.8335   -1.9735 H         1 MOL         0.0431
     32 H4         -2.9233    3.9547   -1.0891 H         1 MOL         0.3101
     33 H5         -0.9563    4.5617   -2.7015 H         1 MOL         0.1410
     34 H6          1.3281    5.2702   -2.0874 H         1 MOL         0.1378
     35 H7          2.7707    3.7828   -0.7236 H         1 MOL         0.1360
     36 H8          1.9378    1.5909    0.0259 H         1 MOL         0.1467
     37 H9          1.7598   -1.3008   -1.1806 H         1 MOL         0.1544
     38 H10         3.7515   -2.1056    0.0213 H         1 MOL         0.1449
     39 H11         0.2325    0.5123    2.4465 H         1 MOL         0.1523
     40 H12         2.0676    0.0523    4.6279 H         1 MOL         0.4865
     41 H13         5.4618   -2.6595    1.7240 H         1 MOL         0.1330
     42 H14         6.0533   -2.1891    4.7098 H         1 MOL         0.1617
     43 H15         6.6404   -4.5489    1.9176 H         1 MOL         0.1438
     44 H16         8.7644   -5.8007    1.6388 H         1 MOL         0.1387
     45 H17        10.7251   -5.2245    3.0666 H         1 MOL         0.1440
     46 H18        10.4694   -3.3844    4.7413 H         1 MOL         0.0235
@<TRIPOS>BOND
     1    1    2 1
     2    2    3 am
     3    3    4 2
     4    3    5 1
     5    5   10 ar
     6    5    6 ar
     7    6    7 ar
     8    7    8 ar
     9    8    9 ar
    10    9   10 ar
    11   10   11 1
    12   11   12 1
    13   12   17 ar
    14   12   13 ar
    15   13   14 ar
    16   14   15 ar
    17   15   20 1
    18   15   16 ar
    19   16   17 ar
    20   16   18 1
    21   18   19 1
    22   19   20 2
    23   20   21 1
    24   21   22 2
    25   22   23 1
    26   23   28 ar
    27   23   24 ar
    28   24   25 ar
    29   25   26 ar
    30   26   27 ar
    31   27   28 ar
    32    1   29 1
    33    1   30 1
    34    1   31 1
    35    2   32 1
    36    6   33 1
    37    7   34 1
    38    8   35 1
    39    9   36 1
    40   13   37 1
    41   14   38 1
    42   17   39 1
    43   18   40 1
    44   21   41 1
    45   22   42 1
    46   24   43 1
    47   25   44 1
    48   26   45 1
    49   27   46 1
@<TRIPOS>MOLECULE
~{N}-methyl-2-[[3-[(~{E})-2-(2-pyridyl)vinyl]-1~{H}-indazol-6-yl]sulfanyl]benzamide
   46    49     0     0     0
SMALL
USER_CHARGES

@<TRIPOS>ATOM
      1 C1         -4.7410   -0.4757   -0.2827 C.3       1 MOL         0.0802
      2 N1         -3.6961    0.5052   -0.0960 N.am      1 MOL        -0.5743
      3 C2         -3.2298    0.8639    1.1587 C.2       1 MOL         0.6672
      4 O1         -3.6407    0.4017    2.2198 O.2       1 MOL        -0.5832
      5 C3         -2.1904    1.8872    1.1822 C.ar      1 MOL        -0.1328
      6 C4         -2.4608    3.0692    1.8716 C.ar      1 MOL        -0.0937
      7 C5         -1.5010    4.0799    1.9264 C.ar      1 MOL        -0.1467
      8 C6         -0.2708    3.9085    1.2917 C.ar      1 MOL        -0.0974
      9 C7         -0.0004    2.7264    0.6023 C.ar      1 MOL        -0.1577
     10 C8         -0.9602    1.7158    0.5475 C.ar      1 MOL         0.0287
     11 S1         -0.5618    0.2240   -0.3504 S.3       1 MOL        -0.0864
     12 C9          0.8725   -0.3471    0.5479 C.ar      1 MOL        -0.0352
     13 C10         1.8575   -1.0770   -0.1202 C.ar      1 MOL        -0.1080
     14 C11         2.9942   -1.5392    0.5550 C.ar      1 MOL        -0.0801
     15 C12         3.1242   -1.2526    1.9242 C.ar      1 MOL        -0.1729
     16 C13         2.1285   -0.5238    2.5651 C.ar      1 MOL         0.0545
     17 C14         0.9878   -0.0537    1.9107 C.ar      1 MOL        -0.0801
     18 N2          2.5420   -0.4150    3.8654 N.pl3     1 MOL        -0.3860
     19 N3          3.7190   -1.0102    4.1207 N.2       1 MOL        -0.3947
     20 C15         4.0702   -1.5186    2.9374 C.2       1 MOL         0.3773
     21 C16         5.2721   -2.2471    2.7384 C.2       1 MOL        -0.1776
     22 C17         5.4745   -3.2526    1.8233 C.2       1 MOL        -0.1980
     23 C18         6.7281   -3.9953    1.6038 C.ar      1 MOL         0.4459
     24 C19         7.9472   -3.3800    1.8385 C.ar      1 MOL        -0.2368
     25 C20         9.1031   -4.1207    1.6181 C.ar      1 MOL        -0.0928
     26 C21         9.0059   -5.4354    1.1762 C.ar      1 MOL        -0.2453
     27 C22         7.7395   -5.9588    0.9713 C.ar      1 MOL         0.3986
     28 N4          6.5940   -5.2702    1.1745 N.ar      1 MOL        -0.6566
     29 H1         -5.7191    0.0124   -0.2811 H         1 MOL         0.0431
     30 H2         -4.7148   -1.2139    0.5234 H         1 MOL         0.0431
     31 H3         -4.6075   -0.9933   -1.2364 H         1 MOL         0.0431
     32 H4         -3.2890    0.9474   -0.9136 H         1 MOL         0.3101
     33 H5         -3.4158    3.2159    2.3702 H         1 MOL         0.1410
     34 H6         -1.7118    5.0007    2.4627 H         1 MOL         0.1378
     35 H7          0.4764    4.6953    1.3349 H         1 MOL         0.1360
     36 H8          0.9649    2.6138    0.1147 H         1 MOL         0.1467
     37 H9          1.7598   -1.3008   -1.1806 H         1 MOL         0.1544
     38 H10         3.7515   -2.1056    0.0213 H         1 MOL         0.1449
     39 H11         0.2325    0.5123    2.4465 H         1 MOL         0.1523
     40 H12         2.0676    0.0523    4.6279 H         1 MOL         0.4865
     41 H13         6.1521   -1.9665    3.3564 H         1 MOL         0.1330
     42 H14         4.6552   -3.5270    1.1632 H         1 MOL         0.1617
     43 H15         8.0153   -2.3532    2.1836 H         1 MOL         0.1438
     44 H16        10.0781   -3.6750    1.7913 H         1 MOL         0.1387
     45 H17         9.8937   -6.0310    0.9973 H         1 MOL         0.1440
     46 H18         7.6092   -6.9790    0.6255 H         1 MOL         0.0235
@<TRIPOS>BOND
     1    1    2 1
     2    2    3 am
     3    3    4 2
     4    3    5 1
     5    5   10 ar
     6    5    6 ar
     7    6    7 ar
     8    7    8 ar
     9    8    9 ar
    10    9   10 ar
    11   10   11 1
    12   11   12 1
    13   12   17 ar
    14   12   13 ar
    15   13   14 ar
    16   14   15 ar
    17   15   20 1
    18   15   16 ar
    19   16   17 ar
    20   16   18 1
    21   18   19 1
    22   19   20 2
    23   20   21 1
    24   21   22 2
    25   22   23 1
    26   23   28 ar
    27   23   24 ar
    28   24   25 ar
    29   25   26 ar
    30   26   27 ar
    31   27   28 ar
    32    1   29 1
    33    1   30 1
    34    1   31 1
    35    2   32 1
    36    6   33 1
    37    7   34 1
    38    8   35 1
    39    9   36 1
    40   13   37 1
    41   14   38 1
    42   17   39 1
    43   18   40 1
    44   21   41 1
    45   22   42 1
    46   24   43 1
    47   25   44 1
    48   26   45 1
    49   27   46 1
@<TRIPOS>MOLECULE
~{N}-methyl-2-[[3-[(~{E})-2-(2-pyridyl)vinyl]-1~{H}-indazol-6-yl]sulfanyl]benzamide
   46    49     0     0     0
SMALL
USER_CHARGES

@<TRIPOS>ATOM
      1 C1         -1.5554    2.6882   -4.2045 C.3       1 MOL         0.0802
      2 N1         -1.5932    1.3392   -3.6873 N.am      1 MOL        -0.5743
      3 C2         -0.4442    0.5996   -3.4569 C.2       1 MOL         0.6672
      4 O1          0.7000    0.9970   -3.6607 O.2       1 MOL        -0.5832
      5 C3         -0.6496   -0.7557   -2.9581 C.ar      1 MOL        -0.1328
      6 C4         -0.7781   -1.7789   -3.8973 C.ar      1 MOL        -0.0937
      7 C5         -0.9748   -3.0934   -3.4742 C.ar      1 MOL        -0.1467
      8 C6         -1.0431   -3.3847   -2.1118 C.ar      1 MOL        -0.0974
      9 C7         -0.9146   -2.3614   -1.1725 C.ar      1 MOL        -0.1577
     10 C8         -0.7179   -1.0469   -1.5957 C.ar      1 MOL         0.0287
     11 S1         -0.5618    0.2240   -0.3504 S.3       1 MOL        -0.0864
     12 C9          0.8725   -0.3471    0.5479 C.ar      1 MOL        -0.0352
     13 C10         1.8575   -1.0770   -0.1202 C.ar      1 MOL        -0.1080
     14 C11         2.9942   -1.5392    0.5550 C.ar      1 MOL        -0.0801
     15 C12         3.1242   -1.2526    1.9242 C.ar      1 MOL        -0.1729
     16 C13         2.1285   -0.5238    2.5651 C.ar      1 MOL         0.0545
     17 C14         0.9878   -0.0537    1.9107 C.ar      1 MOL        -0.0801
     18 N2          2.5420   -0.4150    3.8654 N.pl3     1 MOL        -0.3860
     19 N3          3.7190   -1.0102    4.1207 N.2       1 MOL        -0.3947
     20 C15         4.0702   -1.5186    2.9374 C.2       1 MOL         0.3773
     21 C16         5.2721   -2.2471    2.7384 C.2       1 MOL        -0.1776
     22 C17         5.4745   -3.2526    1.8233 C.2       1 MOL        -0.1980
     23 C18         6.7281   -3.9953    1.6038 C.ar      1 MOL         0.4459
     24 C19         7.9472   -3.3800    1.8385 C.ar      1 MOL        -0.2368
     25 C20         9.1031   -4.1207    1.6181 C.ar      1 MOL        -0.0928
     26 C21         9.0059   -5.4354    1.1762 C.ar      1 MOL        -0.2453
     27 C22         7.7395   -5.9588    0.9713 C.ar      1 MOL         0.3986
     28 N4          6.5940   -5.2702    1.1745 N.ar      1 MOL        -0.6566
     29 H1         -1.5891    2.6728   -5.2970 H         1 MOL         0.0431
     30 H2         -0.6364    3.1888   -3.8878 H         1 MOL         0.0431
     31 H3         -2.4110    3.2592   -3.8340 H         1 MOL         0.0431
     32 H4         -2.4942    0.9182   -3.4855 H         1 MOL         0.3101
     33 H5         -0.7272   -1.5656   -4.9622 H         1 MOL         0.1410
     34 H6         -1.0754   -3.8902   -4.2056 H         1 MOL         0.1378
     35 H7         -1.1958   -4.4081   -1.7826 H         1 MOL         0.1360
     36 H8         -0.9710   -2.6106   -0.1157 H         1 MOL         0.1467
     37 H9          1.7598   -1.3008   -1.1806 H         1 MOL         0.1544
     38 H10         3.7515   -2.1056    0.0213 H         1 MOL         0.1449
     39 H11         0.2325    0.5123    2.4465 H         1 MOL         0.1523
     40 H12         2.0676    0.0523    4.6279 H         1 MOL         0.4865
     41 H13         6.1521   -1.9665    3.3564 H         1 MOL         0.1330
     42 H14         4.6552   -3.5270    1.1632 H         1 MOL         0.1617
     43 H15         8.0153   -2.3532    2.1836 H         1 MOL         0.1438
     44 H16        10.0781   -3.6750    1.7913 H         1 MOL         0.1387
     45 H17         9.8937   -6.0310    0.9973 H         1 MOL         0.1440
     46 H18         7.6092   -6.9790    0.6255 H         1 MOL         0.0235
@<TRIPOS>BOND
     1    1    2 1
     2    2    3 am
     3    3    4 2
     4    3    5 1
     5    5   10 ar
     6    5    6 ar
     7    6    7 ar
     8    7    8 ar
     9    8    9 ar
    10    9   10 ar
    11   10   11 1
    12   11   12 1
    13   12   17 ar
    14   12   13 ar
    15   13   14 ar
    16   14   15 ar
    17   15   20 1
    18   15   16 ar
    19   16   17 ar
    20   16   18 1
    21   18   19 1
    22   19   20 2
    23   20   21 1
    24   21   22 2
    25   22   23 1
    26   23   28 ar
    27   23   24 ar
    28   24   25 ar
    29   25   26 ar
    30   26   27 ar
    31   27   28 ar
    32    1   29 1
    33    1   30 1
    34    1   31 1
    35    2   32 1
    36    6   33 1
    37    7   34 1
    38    8   35 1
    39    9   36 1
    40   13   37 1
    41   14   38 1
    42   17   39 1
    43   18   40 1
    44   21   41 1
    45   22   42 1
    46   24   43 1
    47   25   44 1
    48   26   45 1
    49   27   46 1
@<TRIPOS>MOLECULE
~{N}-methyl-2-[[3-[(~{E})-2-(2-pyridyl)vinyl]-1~{H}-indazol-6-yl]sulfanyl]benzamide
   46    49     0     0     0
SMALL
USER_CHARGES

@<TRIPOS>ATOM
      1 C1         -4.4821    1.0816   -1.7125 C.3       1 MOL         0.0802
      2 N1         -3.1785    1.6316   -1.4178 N.am      1 MOL        -0.5743
      3 C2         -2.9042    2.2989   -0.2346 C.2       1 MOL         0.6672
      4 O1         -3.7147    2.4911    0.6680 O.2       1 MOL        -0.5832
      5 C3         -1.5480    2.8183   -0.0971 C.ar      1 MOL        -0.1328
      6 C4         -1.3959    4.1943    0.0745 C.ar      1 MOL        -0.0937
      7 C5         -0.1210    4.7432    0.2122 C.ar      1 MOL        -0.1467
      8 C6          1.0018    3.9163    0.1781 C.ar      1 MOL        -0.0974
      9 C7          0.8496    2.5404    0.0064 C.ar      1 MOL        -0.1577
     10 C8         -0.4253    1.9914   -0.1313 C.ar      1 MOL         0.0287
     11 S1         -0.5618    0.2240   -0.3504 S.3       1 MOL        -0.0864
     12 C9          0.8725   -0.3471    0.5479 C.ar      1 MOL        -0.0352
     13 C10         1.8575   -1.0770   -0.1202 C.ar      1 MOL        -0.1080
     14 C11         2.9942   -1.5392    0.5550 C.ar      1 MOL        -0.0801
     15 C12         3.1242   -1.2526    1.9242 C.ar      1 MOL        -0.1729
     16 C13         2.1285   -0.5238    2.5651 C.ar      1 MOL         0.0545
     17 C14         0.9878   -0.0537    1.9107 C.ar      1 MOL        -0.0801
     18 N2          2.5420   -0.4150    3.8654 N.pl3     1 MOL        -0.3860
     19 N3          3.7190   -1.0102    4.1207 N.2       1 MOL        -0.3947
     20 C15         4.0702   -1.5186    2.9374 C.2       1 MOL         0.3773
     21 C16         5.2721   -2.2471    2.7384 C.2       1 MOL        -0.1776
     22 C17         6.0033   -2.3127    1.5763 C.2       1 MOL        -0.1980
     23 C18         7.2613   -3.0535    1.3759 C.ar      1 MOL         0.4459
     24 C19         7.5066   -4.2092    2.0996 C.ar      1 MOL        -0.2368
     25 C20         8.7070   -4.8744    1.8761 C.ar      1 MOL        -0.0928
     26 C21         9.6123   -4.3707    0.9488 C.ar      1 MOL        -0.2453
     27 C22         9.2726   -3.2079    0.2764 C.ar      1 MOL         0.3986
     28 N4          8.1163   -2.5338    0.4667 N.ar      1 MOL        -0.6566
     29 H1         -5.0966    1.8259   -2.2257 H         1 MOL         0.0431
     30 H2         -4.9857    0.7864   -0.7880 H         1 MOL         0.0431
     31 H3         -4.3849    0.2022   -2.3548 H         1 MOL         0.0431
     32 H4         -2.4369    1.5252   -2.1022 H         1 MOL         0.3101
     33 H5         -2.2626    4.8501    0.1024 H         1 MOL         0.1410
     34 H6         -0.0025    5.8147    0.3453 H         1 MOL         0.1378
     35 H7          1.9941    4.3438    0.2857 H         1 MOL         0.1360
     36 H8          1.7382    1.9142   -0.0174 H         1 MOL         0.1467
     37 H9          1.7598   -1.3008   -1.1806 H         1 MOL         0.1544
     38 H10         3.7515   -2.1056    0.0213 H         1 MOL         0.1449
     39 H11         0.2325    0.5123    2.4465 H         1 MOL         0.1523
     40 H12         2.0676    0.0523    4.6279 H         1 MOL         0.4865
     41 H13         5.6893   -2.7988    3.6082 H         1 MOL         0.1330
     42 H14         5.6588   -1.7483    0.7131 H         1 MOL         0.1617
     43 H15         6.7951   -4.5965    2.8219 H         1 MOL         0.1438
     44 H16         8.9365   -5.7844    2.4225 H         1 MOL         0.1387
     45 H17        10.5541   -4.8726    0.7591 H         1 MOL         0.1440
     46 H18         9.9448   -2.7730   -0.4560 H         1 MOL         0.0235
@<TRIPOS>BOND
     1    1    2 1
     2    2    3 am
     3    3    4 2
     4    3    5 1
     5    5   10 ar
     6    5    6 ar
     7    6    7 ar
     8    7    8 ar
     9    8    9 ar
    10    9   10 ar
    11   10   11 1
    12   11   12 1
    13   12   17 ar
    14   12   13 ar
    15   13   14 ar
    16   14   15 ar
    17   15   20 1
    18   15   16 ar
    19   16   17 ar
    20   16   18 1
    21   18   19 1
    22   19   20 2
    23   20   21 1
    24   21   22 2
    25   22   23 1
    26   23   28 ar
    27   23   24 ar
    28   24   25 ar
    29   25   26 ar
    30   26   27 ar
    31   27   28 ar
    32    1   29 1
    33    1   30 1
    34    1   31 1
    35    2   32 1
    36    6   33 1
    37    7   34 1
    38    8   35 1
    39    9   36 1
    40   13   37 1
    41   14   38 1
    42   17   39 1
    43   18   40 1
    44   21   41 1
    45   22   42 1
    46   24   43 1
    47   25   44 1
    48   26   45 1
    49   27   46 1
@<TRIPOS>MOLECULE
~{N}-methyl-2-[[3-[(~{E})-2-(2-pyridyl)vinyl]-1~{H}-indazol-6-yl]sulfanyl]benzamide
   46    49     0     0     0
SMALL
USER_CHARGES

@<TRIPOS>ATOM
      1 C1         -0.6857    4.4191    0.0032 C.3       1 MOL         0.0802
      2 N1         -1.3857    3.1975    0.3293 N.am      1 MOL        -0.5743
      3 C2         -1.2808    2.5901    1.5705 C.2       1 MOL         0.6672
      4 O1         -0.6012    3.0102    2.5033 O.2       1 MOL        -0.5832
      5 C3         -2.0281    1.3483    1.7360 C.ar      1 MOL        -0.1328
      6 C4         -3.0027    1.3070    2.7331 C.ar      1 MOL        -0.0937
      7 C5         -3.7472    0.1445    2.9329 C.ar      1 MOL        -0.1467
      8 C6         -3.5172   -0.9767    2.1357 C.ar      1 MOL        -0.0974
      9 C7         -2.5425   -0.9354    1.1386 C.ar      1 MOL        -0.1577
     10 C8         -1.7980    0.2271    0.9388 C.ar      1 MOL         0.0287
     11 S1         -0.5618    0.2240   -0.3504 S.3       1 MOL        -0.0864
     12 C9          0.8725   -0.3471    0.5479 C.ar      1 MOL        -0.0352
     13 C10         1.8575   -1.0770   -0.1202 C.ar      1 MOL        -0.1080
     14 C11         2.9942   -1.5392    0.5550 C.ar      1 MOL        -0.0801
     15 C12         3.1242   -1.2526    1.9242 C.ar      1 MOL        -0.1729
     16 C13         2.1285   -0.5238    2.5651 C.ar      1 MOL         0.0545
     17 C14         0.9878   -0.0537    1.9107 C.ar      1 MOL        -0.0801
     18 N2          2.5420   -0.4150    3.8654 N.pl3     1 MOL        -0.3860
     19 N3          3.7190   -1.0102    4.1207 N.2       1 MOL        -0.3947
     20 C15         4.0702   -1.5186    2.9374 C.2       1 MOL         0.3773
     21 C16         5.2721   -2.2471    2.7384 C.2       1 MOL        -0.1776
     22 C17         6.0033   -2.3127    1.5763 C.2       1 MOL        -0.1980
     23 C18         7.2613   -3.0535    1.3759 C.ar      1 MOL         0.4459
     24 C19         7.5066   -4.2092    2.0996 C.ar      1 MOL        -0.2368
     25 C20         8.7070   -4.8744    1.8761 C.ar      1 MOL        -0.0928
     26 C21         9.6123   -4.3707    0.9488 C.ar      1 MOL        -0.2453
     27 C22         9.2726   -3.2079    0.2764 C.ar      1 MOL         0.3986
     28 N4          8.1163   -2.5338    0.4667 N.ar      1 MOL        -0.6566
     29 H1          0.2965    4.1885   -0.4176 H         1 MOL         0.0431
     30 H2         -0.5497    5.0281    0.9011 H         1 MOL         0.0431
     31 H3         -1.2554    4.9972   -0.7293 H         1 MOL         0.0431
     32 H4         -1.9757    2.7689   -0.3763 H         1 MOL         0.3101
     33 H5         -3.1919    2.1737    3.3617 H         1 MOL         0.1410
     34 H6         -4.5058    0.1121    3.7097 H         1 MOL         0.1378
     35 H7         -4.0972   -1.8814    2.2912 H         1 MOL         0.1360
     36 H8         -2.3795   -1.8207    0.5288 H         1 MOL         0.1467
     37 H9          1.7598   -1.3008   -1.1806 H         1 MOL         0.1544
     38 H10         3.7515   -2.1056    0.0213 H         1 MOL         0.1449
     39 H11         0.2325    0.5123    2.4465 H         1 MOL         0.1523
     40 H12         2.0676    0.0523    4.6279 H         1 MOL         0.4865
     41 H13         5.6893   -2.7988    3.6082 H         1 MOL         0.1330
     42 H14         5.6588   -1.7483    0.7131 H         1 MOL         0.1617
     43 H15         6.7951   -4.5965    2.8219 H         1 MOL         0.1438
     44 H16         8.9365   -5.7844    2.4225 H         1 MOL         0.1387
     45 H17        10.5541   -4.8726    0.7591 H         1 MOL         0.1440
     46 H18         9.9448   -2.7730   -0.4560 H         1 MOL         0.0235
@<TRIPOS>BOND
     1    1    2 1
     2    2    3 am
     3    3    4 2
     4    3    5 1
     5    5   10 ar
     6    5    6 ar
     7    6    7 ar
     8    7    8 ar
     9    8    9 ar
    10    9   10 ar
    11   10   11 1
    12   11   12 1
    13   12   17 ar
    14   12   13 ar
    15   13   14 ar
    16   14   15 ar
    17   15   20 1
    18   15   16 ar
    19   16   17 ar
    20   16   18 1
    21   18   19 1
    22   19   20 2
    23   20   21 1
    24   21   22 2
    25   22   23 1
    26   23   28 ar
    27   23   24 ar
    28   24   25 ar
    29   25   26 ar
    30   26   27 ar
    31   27   28 ar
    32    1   29 1
    33    1   30 1
    34    1   31 1
    35    2   32 1
    36    6   33 1
    37    7   34 1
    38    8   35 1
    39    9   36 1
    40   13   37 1
    41   14   38 1
    42   17   39 1
    43   18   40 1
    44   21   41 1
    45   22   42 1
    46   24   43 1
    47   25   44 1
    48   26   45 1
    49   27   46 1
@<TRIPOS>MOLECULE
~{N}-methyl-2-[[3-[(~{E})-2-(2-pyridyl)vinyl]-1~{H}-indazol-6-yl]sulfanyl]benzamide
   46    49     0     0     0
SMALL
USER_CHARGES

@<TRIPOS>ATOM
      1 C1          0.0477   -4.3372   -2.5082 C.3       1 MOL         0.0802
      2 N1          0.4518   -2.9687   -2.7375 N.am      1 MOL        -0.5743
      3 C2         -0.4334   -1.9068   -2.6413 C.2       1 MOL         0.6672
      4 O1         -1.6244   -2.0082   -2.3588 O.2       1 MOL        -0.5832
      5 C3          0.1214   -0.5884   -2.9273 C.ar      1 MOL        -0.1328
      6 C4          0.6657   -0.3758   -4.1939 C.ar      1 MOL        -0.0937
      7 C5          1.2084    0.8670   -4.5201 C.ar      1 MOL        -0.1467
      8 C6          1.2069    1.8973   -3.5798 C.ar      1 MOL        -0.0974
      9 C7          0.6626    1.6846   -2.3132 C.ar      1 MOL        -0.1577
     10 C8          0.1199    0.4417   -1.9870 C.ar      1 MOL         0.0287
     11 S1         -0.5618    0.2240   -0.3504 S.3       1 MOL        -0.0864
     12 C9          0.8725   -0.3471    0.5479 C.ar      1 MOL        -0.0352
     13 C10         1.8575   -1.0770   -0.1202 C.ar      1 MOL        -0.1080
     14 C11         2.9942   -1.5392    0.5550 C.ar      1 MOL        -0.0801
     15 C12         3.1242   -1.2526    1.9242 C.ar      1 MOL        -0.1729
     16 C13         2.1285   -0.5238    2.5651 C.ar      1 MOL         0.0545
     17 C14         0.9878   -0.0537    1.9107 C.ar      1 MOL        -0.0801
     18 N2          2.5420   -0.4150    3.8654 N.pl3     1 MOL        -0.3860
     19 N3          3.7190   -1.0102    4.1207 N.2       1 MOL        -0.3947
     20 C15         4.0702   -1.5186    2.9374 C.2       1 MOL         0.3773
     21 C16         5.2721   -2.2471    2.7384 C.2       1 MOL        -0.1776
     22 C17         6.0033   -2.3127    1.5763 C.2       1 MOL        -0.1980
     23 C18         7.2613   -3.0535    1.3759 C.ar      1 MOL         0.4459
     24 C19         7.5066   -4.2092    2.0996 C.ar      1 MOL        -0.2368
     25 C20         8.7070   -4.8744    1.8761 C.ar      1 MOL        -0.0928
     26 C21         9.6123   -4.3707    0.9488 C.ar      1 MOL        -0.2453
     27 C22         9.2726   -3.2079    0.2764 C.ar      1 MOL         0.3986
     28 N4          8.1163   -2.5338    0.4667 N.ar      1 MOL        -0.6566
     29 H1         -0.2851   -4.7926   -3.4445 H         1 MOL         0.0431
     30 H2         -0.7741   -4.3730   -1.7878 H         1 MOL         0.0431
     31 H3          0.8857   -4.9176   -2.1129 H         1 MOL         0.0431
     32 H4          1.4192   -2.7784   -2.9777 H         1 MOL         0.3101
     33 H5          0.6737   -1.1703   -4.9361 H         1 MOL         0.1410
     34 H6          1.6328    1.0325   -5.5063 H         1 MOL         0.1378
     35 H7          1.6291    2.8648   -3.8342 H         1 MOL         0.1360
     36 H8          0.6719    2.5013   -1.5954 H         1 MOL         0.1467
     37 H9          1.7598   -1.3008   -1.1806 H         1 MOL         0.1544
     38 H10         3.7515   -2.1056    0.0213 H         1 MOL         0.1449
     39 H11         0.2325    0.5123    2.4465 H         1 MOL         0.1523
     40 H12         2.0676    0.0523    4.6279 H         1 MOL         0.4865
     41 H13         5.6893   -2.7988    3.6082 H         1 MOL         0.1330
     42 H14         5.6588   -1.7483    0.7131 H         1 MOL         0.1617
     43 H15         6.7951   -4.5965    2.8219 H         1 MOL         0.1438
     44 H16         8.9365   -5.7844    2.4225 H         1 MOL         0.1387
     45 H17        10.5541   -4.8726    0.7591 H         1 MOL         0.1440
     46 H18         9.9448   -2.7730   -0.4560 H         1 MOL         0.0235
@<TRIPOS>BOND
     1    1    2 1
     2    2    3 am
     3    3    4 2
     4    3    5 1
     5    5   10 ar
     6    5    6 ar
     7    6    7 ar
     8    7    8 ar
     9    8    9 ar
    10    9   10 ar
    11   10   11 1
    12   11   12 1
    13   12   17 ar
    14   12   13 ar
    15   13   14 ar
    16   14   15 ar
    17   15   20 1
    18   15   16 ar
    19   16   17 ar
    20   16   18 1
    21   18   19 1
    22   19   20 2
    23   20   21 1
    24   21   22 2
    25   22   23 1
    26   23   28 ar
    27   23   24 ar
    28   24   25 ar
    29   25   26 ar
    30   26   27 ar
    31   27   28 ar
    32    1   29 1
    33    1   30 1
    34    1   31 1
    35    2   32 1
    36    6   33 1
    37    7   34 1
    38    8   35 1
    39    9   36 1
    40   13   37 1
    41   14   38 1
    42   17   39 1
    43   18   40 1
    44   21   41 1
    45   22   42 1
    46   24   43 1
    47   25   44 1
    48   26   45 1
    49   27   46 1
@<TRIPOS>MOLECULE
~{N}-methyl-2-[[3-[(~{E})-2-(2-pyridyl)vinyl]-1~{H}-indazol-6-yl]sulfanyl]benzamide
   46    49     0     0     0
SMALL
USER_CHARGES

@<TRIPOS>ATOM
      1 C1         -1.4331   -4.7827   -0.4270 C.3       1 MOL         0.0802
      2 N1         -0.8002   -3.7814   -1.2551 N.am      1 MOL        -0.5743
      3 C2         -1.3923   -2.5576   -1.5241 C.2       1 MOL         0.6672
      4 O1         -2.4882   -2.1990   -1.1011 O.2       1 MOL        -0.5832
      5 C3         -0.6389   -1.6651   -2.3980 C.ar      1 MOL        -0.1328
      6 C4         -0.3453   -2.1149   -3.6853 C.ar      1 MOL        -0.0937
      7 C5          0.3715   -1.3007   -4.5621 C.ar      1 MOL        -0.1467
      8 C6          0.7950   -0.0366   -4.1515 C.ar      1 MOL        -0.0974
      9 C7          0.5014    0.4131   -2.8641 C.ar      1 MOL        -0.1577
     10 C8         -0.2154   -0.4011   -1.9874 C.ar      1 MOL         0.0287
     11 S1         -0.5618    0.2240   -0.3504 S.3       1 MOL        -0.0864
     12 C9          0.8725   -0.3471    0.5479 C.ar      1 MOL        -0.0352
     13 C10         1.8575   -1.0770   -0.1202 C.ar      1 MOL        -0.1080
     14 C11         2.9942   -1.5392    0.5550 C.ar      1 MOL        -0.0801
     15 C12         3.1242   -1.2526    1.9242 C.ar      1 MOL        -0.1729
     16 C13         2.1285   -0.5238    2.5651 C.ar      1 MOL         0.0545
     17 C14         0.9878   -0.0537    1.9107 C.ar      1 MOL        -0.0801
     18 N2          2.5420   -0.4150    3.8654 N.pl3     1 MOL        -0.3860
     19 N3          3.7190   -1.0102    4.1207 N.2       1 MOL        -0.3947
     20 C15         4.0702   -1.5186    2.9374 C.2       1 MOL         0.3773
     21 C16         5.2721   -2.2471    2.7384 C.2       1 MOL        -0.1776
     22 C17         5.6341   -3.4122    3.3715 C.2       1 MOL        -0.1980
     23 C18         6.8732   -4.1785    3.1505 C.ar      1 MOL         0.4459
     24 C19         8.0326   -3.5238    2.7671 C.ar      1 MOL        -0.2368
     25 C20         9.1771   -4.2885    2.5708 C.ar      1 MOL        -0.0928
     26 C21         9.1280   -5.6649    2.7614 C.ar      1 MOL        -0.2453
     27 C22         7.9196   -6.2238    3.1453 C.ar      1 MOL         0.3986
     28 N4          6.7869   -5.5135    3.3455 N.ar      1 MOL        -0.6566
     29 H1         -2.0493   -5.4439   -1.0418 H         1 MOL         0.0431
     30 H2         -2.0695   -4.3055    0.3232 H         1 MOL         0.0431
     31 H3         -0.6764   -5.3826    0.0856 H         1 MOL         0.0431
     32 H4          0.1110   -3.9818   -1.6541 H         1 MOL         0.3101
     33 H5         -0.6690   -3.0982   -4.0179 H         1 MOL         0.1410
     34 H6          0.6007   -1.6511   -5.5644 H         1 MOL         0.1378
     35 H7          1.3526    0.5972   -4.8344 H         1 MOL         0.1360
     36 H8          0.8411    1.4017   -2.5647 H         1 MOL         0.1467
     37 H9          1.7598   -1.3008   -1.1806 H         1 MOL         0.1544
     38 H10         3.7515   -2.1056    0.0213 H         1 MOL         0.1449
     39 H11         0.2325    0.5123    2.4465 H         1 MOL         0.1523
     40 H12         2.0676    0.0523    4.6279 H         1 MOL         0.4865
     41 H13         5.9856   -1.8645    1.9770 H         1 MOL         0.1330
     42 H14         4.9440   -3.8497    4.0889 H         1 MOL         0.1617
     43 H15         8.0634   -2.4489    2.6202 H         1 MOL         0.1438
     44 H16        10.1063   -3.8131    2.2710 H         1 MOL         0.1387
     45 H17        10.0078   -6.2805    2.6135 H         1 MOL         0.1440
     46 H18         7.8279   -7.2930    3.3056 H         1 MOL         0.0235
@<TRIPOS>BOND
     1    1    2 1
     2    2    3 am
     3    3    4 2
     4    3    5 1
     5    5   10 ar
     6    5    6 ar
     7    6    7 ar
     8    7    8 ar
     9    8    9 ar
    10    9   10 ar
    11   10   11 1
    12   11   12 1
    13   12   17 ar
    14   12   13 ar
    15   13   14 ar
    16   14   15 ar
    17   15   20 1
    18   15   16 ar
    19   16   17 ar
    20   16   18 1
    21   18   19 1
    22   19   20 2
    23   20   21 1
    24   21   22 2
    25   22   23 1
    26   23   28 ar
    27   23   24 ar
    28   24   25 ar
    29   25   26 ar
    30   26   27 ar
    31   27   28 ar
    32    1   29 1
    33    1   30 1
    34    1   31 1
    35    2   32 1
    36    6   33 1
    37    7   34 1
    38    8   35 1
    39    9   36 1
    40   13   37 1
    41   14   38 1
    42   17   39 1
    43   18   40 1
    44   21   41 1
    45   22   42 1
    46   24   43 1
    47   25   44 1
    48   26   45 1
    49   27   46 1
@<TRIPOS>MOLECULE
~{N}-methyl-2-[[3-[(~{E})-2-(2-pyridyl)vinyl]-1~{H}-indazol-6-yl]sulfanyl]benzamide
   46    49     0     0     0
SMALL
USER_CHARGES

@<TRIPOS>ATOM
      1 C1         -3.6369    2.5149   -2.0927 C.3       1 MOL         0.0802
      2 N1         -3.3576    1.3123   -1.3413 N.am      1 MOL        -0.5743
      3 C2         -3.4955    1.2483    0.0361 C.2       1 MOL         0.6672
      4 O1         -3.8596    2.1791    0.7499 O.2       1 MOL        -0.5832
      5 C3         -3.1503   -0.0286    0.6511 C.ar      1 MOL        -0.1328
      6 C4         -4.1477   -0.6953    1.3627 C.ar      1 MOL        -0.0937
      7 C5         -3.8713   -1.9205    1.9694 C.ar      1 MOL        -0.1467
      8 C6         -2.5974   -2.4790    1.8647 C.ar      1 MOL        -0.0974
      9 C7         -1.5999   -1.8122    1.1532 C.ar      1 MOL        -0.1577
     10 C8         -1.8764   -0.5870    0.5464 C.ar      1 MOL         0.0287
     11 S1         -0.5618    0.2240   -0.3504 S.3       1 MOL        -0.0864
     12 C9          0.8725   -0.3471    0.5479 C.ar      1 MOL        -0.0352
     13 C10         1.8575   -1.0770   -0.1202 C.ar      1 MOL        -0.1080
     14 C11         2.9942   -1.5392    0.5550 C.ar      1 MOL        -0.0801
     15 C12         3.1242   -1.2526    1.9242 C.ar      1 MOL        -0.1729
     16 C13         2.1285   -0.5238    2.5651 C.ar      1 MOL         0.0545
     17 C14         0.9878   -0.0537    1.9107 C.ar      1 MOL        -0.0801
     18 N2          2.5420   -0.4150    3.8654 N.pl3     1 MOL        -0.3860
     19 N3          3.7190   -1.0102    4.1207 N.2       1 MOL        -0.3947
     20 C15         4.0702   -1.5186    2.9374 C.2       1 MOL         0.3773
     21 C16         5.2721   -2.2471    2.7384 C.2       1 MOL        -0.1776
     22 C17         5.3756   -3.5472    2.3043 C.2       1 MOL        -0.1980
     23 C18         6.6241   -4.2968    2.0793 C.ar      1 MOL         0.4459
     24 C19         7.5503   -3.8375    1.1568 C.ar      1 MOL        -0.2368
     25 C20         8.7138   -4.5778    0.9791 C.ar      1 MOL        -0.0928
     26 C21         8.9127   -5.7381    1.7190 C.ar      1 MOL        -0.2453
     27 C22         7.9257   -6.1122    2.6165 C.ar      1 MOL         0.3986
     28 N4          6.7824   -5.4190    2.8164 N.ar      1 MOL        -0.6566
     29 H1         -2.7330    3.1239   -2.1765 H         1 MOL         0.0431
     30 H2         -4.4116    3.1019   -1.5921 H         1 MOL         0.0431
     31 H3         -3.9843    2.2606   -3.0976 H         1 MOL         0.0431
     32 H4         -3.0493    0.4844   -1.8407 H         1 MOL         0.3101
     33 H5         -5.1447   -0.2710    1.4525 H         1 MOL         0.1410
     34 H6         -4.6478   -2.4395    2.5241 H         1 MOL         0.1378
     35 H7         -2.3826   -3.4330    2.3368 H         1 MOL         0.1360
     36 H8         -0.6140   -2.2654    1.0842 H         1 MOL         0.1467
     37 H9          1.7598   -1.3008   -1.1806 H         1 MOL         0.1544
     38 H10         3.7515   -2.1056    0.0213 H         1 MOL         0.1449
     39 H11         0.2325    0.5123    2.4465 H         1 MOL         0.1523
     40 H12         2.0676    0.0523    4.6279 H         1 MOL         0.4865
     41 H13         6.2315   -1.7162    2.9193 H         1 MOL         0.1330
     42 H14         4.4637   -4.0901    2.0677 H         1 MOL         0.1617
     43 H15         7.3882   -2.9307    0.5829 H         1 MOL         0.1438
     44 H16         9.4650   -4.2509    0.2663 H         1 MOL         0.1387
     45 H17         9.8119   -6.3308    1.5962 H         1 MOL         0.1440
     46 H18         8.0317   -7.0098    3.2167 H         1 MOL         0.0235
@<TRIPOS>BOND
     1    1    2 1
     2    2    3 am
     3    3    4 2
     4    3    5 1
     5    5   10 ar
     6    5    6 ar
     7    6    7 ar
     8    7    8 ar
     9    8    9 ar
    10    9   10 ar
    11   10   11 1
    12   11   12 1
    13   12   17 ar
    14   12   13 ar
    15   13   14 ar
    16   14   15 ar
    17   15   20 1
    18   15   16 ar
    19   16   17 ar
    20   16   18 1
    21   18   19 1
    22   19   20 2
    23   20   21 1
    24   21   22 2
    25   22   23 1
    26   23   28 ar
    27   23   24 ar
    28   24   25 ar
    29   25   26 ar
    30   26   27 ar
    31   27   28 ar
    32    1   29 1
    33    1   30 1
    34    1   31 1
    35    2   32 1
    36    6   33 1
    37    7   34 1
    38    8   35 1
    39    9   36 1
    40   13   37 1
    41   14   38 1
    42   17   39 1
    43   18   40 1
    44   21   41 1
    45   22   42 1
    46   24   43 1
    47   25   44 1
    48   26   45 1
    49   27   46 1
@<TRIPOS>MOLECULE
~{N}-methyl-2-[[3-[(~{E})-2-(2-pyridyl)vinyl]-1~{H}-indazol-6-yl]sulfanyl]benzamide
   46    49     0     0     0
SMALL
USER_CHARGES

@<TRIPOS>ATOM
      1 C1         -3.5679    1.1974   -3.8043 C.3       1 MOL         0.0802
      2 N1         -2.2891    1.6103   -3.2722 N.am      1 MOL        -0.5743
      3 C2         -2.1691    2.2891   -2.0701 C.2       1 MOL         0.6672
      4 O1         -3.1085    2.6058   -1.3450 O.2       1 MOL        -0.5832
      5 C3         -0.8127    2.6596   -1.6817 C.ar      1 MOL        -0.1328
      6 C4         -0.3344    3.9003   -2.1034 C.ar      1 MOL        -0.0937
      7 C5          0.9554    4.3043   -1.7586 C.ar      1 MOL        -0.1467
      8 C6          1.7669    3.4678   -0.9922 C.ar      1 MOL        -0.0974
      9 C7          1.2885    2.2272   -0.5706 C.ar      1 MOL        -0.1577
     10 C8         -0.0012    1.8231   -0.9153 C.ar      1 MOL         0.0287
     11 S1         -0.5618    0.2240   -0.3504 S.3       1 MOL        -0.0864
     12 C9          0.8725   -0.3471    0.5479 C.ar      1 MOL        -0.0352
     13 C10         1.8575   -1.0770   -0.1202 C.ar      1 MOL        -0.1080
     14 C11         2.9942   -1.5392    0.5550 C.ar      1 MOL        -0.0801
     15 C12         3.1242   -1.2526    1.9242 C.ar      1 MOL        -0.1729
     16 C13         2.1285   -0.5238    2.5651 C.ar      1 MOL         0.0545
     17 C14         0.9878   -0.0537    1.9107 C.ar      1 MOL        -0.0801
     18 N2          2.5420   -0.4150    3.8654 N.pl3     1 MOL        -0.3860
     19 N3          3.7190   -1.0102    4.1207 N.2       1 MOL        -0.3947
     20 C15         4.0702   -1.5186    2.9374 C.2       1 MOL         0.3773
     21 C16         5.2721   -2.2471    2.7384 C.2       1 MOL        -0.1776
     22 C17         6.2915   -1.9193    1.8765 C.2       1 MOL        -0.1980
     23 C18         7.5476   -2.6654    1.6845 C.ar      1 MOL         0.4459
     24 C19         8.7022   -1.9935    1.3168 C.ar      1 MOL        -0.2368
     25 C20         9.8633   -2.7396    1.1478 C.ar      1 MOL        -0.0928
     26 C21         9.8347   -4.1151    1.3490 C.ar      1 MOL        -0.2453
     27 C22         8.6294   -4.6920    1.7154 C.ar      1 MOL         0.3986
     28 N4          7.4810   -4.0001    1.8890 N.ar      1 MOL        -0.6566
     29 H1         -3.9823    1.9846   -4.4395 H         1 MOL         0.0431
     30 H2         -4.2692    0.9968   -2.9898 H         1 MOL         0.0431
     31 H3         -3.4535    0.2880   -4.4002 H         1 MOL         0.0431
     32 H4         -1.4484    1.3951   -3.7982 H         1 MOL         0.3101
     33 H5         -0.9563    4.5617   -2.7015 H         1 MOL         0.1410
     34 H6          1.3281    5.2702   -2.0874 H         1 MOL         0.1378
     35 H7          2.7707    3.7828   -0.7236 H         1 MOL         0.1360
     36 H8          1.9378    1.5909    0.0259 H         1 MOL         0.1467
     37 H9          1.7598   -1.3008   -1.1806 H         1 MOL         0.1544
     38 H10         3.7515   -2.1056    0.0213 H         1 MOL         0.1449
     39 H11         0.2325    0.5123    2.4465 H         1 MOL         0.1523
     40 H12         2.0676    0.0523    4.6279 H         1 MOL         0.4865
     41 H13         5.4299   -3.1578    3.3555 H         1 MOL         0.1330
     42 H14         6.2020   -1.0092    1.2882 H         1 MOL         0.1617
     43 H15         8.7170   -0.9195    1.1616 H         1 MOL         0.1438
     44 H16        10.7894   -2.2504    0.8610 H         1 MOL         0.1387
     45 H17        10.7276   -4.7162    1.2222 H         1 MOL         0.1440
     46 H18         8.5534   -5.7613    1.8830 H         1 MOL         0.0235
@<TRIPOS>BOND
     1    1    2 1
     2    2    3 am
     3    3    4 2
     4    3    5 1
     5    5   10 ar
     6    5    6 ar
     7    6    7 ar
     8    7    8 ar
     9    8    9 ar
    10    9   10 ar
    11   10   11 1
    12   11   12 1
    13   12   17 ar
    14   12   13 ar
    15   13   14 ar
    16   14   15 ar
    17   15   20 1
    18   15   16 ar
    19   16   17 ar
    20   16   18 1
    21   18   19 1
    22   19   20 2
    23   20   21 1
    24   21   22 2
    25   22   23 1
    26   23   28 ar
    27   23   24 ar
    28   24   25 ar
    29   25   26 ar
    30   26   27 ar
    31   27   28 ar
    32    1   29 1
    33    1   30 1
    34    1   31 1
    35    2   32 1
    36    6   33 1
    37    7   34 1
    38    8   35 1
    39    9   36 1
    40   13   37 1
    41   14   38 1
    42   17   39 1
    43   18   40 1
    44   21   41 1
    45   22   42 1
    46   24   43 1
    47   25   44 1
    48   26   45 1
    49   27   46 1
@<TRIPOS>MOLECULE
~{N}-methyl-2-[[3-[(~{E})-2-(2-pyridyl)vinyl]-1~{H}-indazol-6-yl]sulfanyl]benzamide
   46    49     0     0     0
SMALL
USER_CHARGES

@<TRIPOS>ATOM
      1 C1          1.6084    3.6964    0.6355 C.3       1 MOL         0.0802
      2 N1          1.4684    2.6449   -0.3461 N.am      1 MOL        -0.5743
      3 C2          0.7512    2.8152   -1.5196 C.2       1 MOL         0.6672
      4 O1          0.1721    3.8481   -1.8458 O.2       1 MOL        -0.5832
      5 C3          0.6807    1.6515   -2.3963 C.ar      1 MOL        -0.1328
      6 C4          1.2006    1.7787   -3.6845 C.ar      1 MOL        -0.0937
      7 C5          1.1598    0.6962   -4.5631 C.ar      1 MOL        -0.1467
      8 C6          0.5991   -0.5136   -4.1537 C.ar      1 MOL        -0.0974
      9 C7          0.0791   -0.6408   -2.8656 C.ar      1 MOL        -0.1577
     10 C8          0.1199    0.4417   -1.9870 C.ar      1 MOL         0.0287
     11 S1         -0.5618    0.2240   -0.3504 S.3       1 MOL        -0.0864
     12 C9          0.8725   -0.3471    0.5479 C.ar      1 MOL        -0.0352
     13 C10         1.8575   -1.0770   -0.1202 C.ar      1 MOL        -0.1080
     14 C11         2.9942   -1.5392    0.5550 C.ar      1 MOL        -0.0801
     15 C12         3.1242   -1.2526    1.9242 C.ar      1 MOL        -0.1729
     16 C13         2.1285   -0.5238    2.5651 C.ar      1 MOL         0.0545
     17 C14         0.9878   -0.0537    1.9107 C.ar      1 MOL        -0.0801
     18 N2          2.5420   -0.4150    3.8654 N.pl3     1 MOL        -0.3860
     19 N3          3.7190   -1.0102    4.1207 N.2       1 MOL        -0.3947
     20 C15         4.0702   -1.5186    2.9374 C.2       1 MOL         0.3773
     21 C16         5.2721   -2.2471    2.7384 C.2       1 MOL        -0.1776
     22 C17         5.4745   -3.2526    1.8233 C.2       1 MOL        -0.1980
     23 C18         6.7281   -3.9953    1.6038 C.ar      1 MOL         0.4459
     24 C19         7.2902   -4.7253    2.6387 C.ar      1 MOL        -0.2368
     25 C20         8.4731   -5.4103    2.3843 C.ar      1 MOL        -0.0928
     26 C21         9.0495   -5.3454    1.1206 C.ar      1 MOL        -0.2453
     27 C22         8.4086   -4.5878    0.1536 C.ar      1 MOL         0.3986
     28 N4          7.2587   -3.9087    0.3634 N.ar      1 MOL        -0.6566
     29 H1          0.7943    3.6421    1.3630 H         1 MOL         0.0431
     30 H2          1.5801    4.6747    0.1481 H         1 MOL         0.0431
     31 H3          2.5601    3.5956    1.1642 H         1 MOL         0.0431
     32 H4          1.9115    1.7492   -0.1696 H         1 MOL         0.3101
     33 H5          1.6401    2.7161   -4.0165 H         1 MOL         0.1410
     34 H6          1.5642    0.7954   -5.5664 H         1 MOL         0.1378
     35 H7          0.5678   -1.3563   -4.8378 H         1 MOL         0.1360
     36 H8         -0.3534   -1.5927   -2.5672 H         1 MOL         0.1467
     37 H9          1.7598   -1.3008   -1.1806 H         1 MOL         0.1544
     38 H10         3.7515   -2.1056    0.0213 H         1 MOL         0.1449
     39 H11         0.2325    0.5123    2.4465 H         1 MOL         0.1523
     40 H12         2.0676    0.0523    4.6279 H         1 MOL         0.4865
     41 H13         6.1521   -1.9665    3.3564 H         1 MOL         0.1330
     42 H14         4.6552   -3.5270    1.1632 H         1 MOL         0.1617
     43 H15         6.8344   -4.7715    3.6227 H         1 MOL         0.1438
     44 H16         8.9448   -5.9948    3.1686 H         1 MOL         0.1387
     45 H17         9.9715   -5.8708    0.9002 H         1 MOL         0.1440
     46 H18         8.8179   -4.5035   -0.8477 H         1 MOL         0.0235
@<TRIPOS>BOND
     1    1    2 1
     2    2    3 am
     3    3    4 2
     4    3    5 1
     5    5   10 ar
     6    5    6 ar
     7    6    7 ar
     8    7    8 ar
     9    8    9 ar
    10    9   10 ar
    11   10   11 1
    12   11   12 1
    13   12   17 ar
    14   12   13 ar
    15   13   14 ar
    16   14   15 ar
    17   15   20 1
    18   15   16 ar
    19   16   17 ar
    20   16   18 1
    21   18   19 1
    22   19   20 2
    23   20   21 1
    24   21   22 2
    25   22   23 1
    26   23   28 ar
    27   23   24 ar
    28   24   25 ar
    29   25   26 ar
    30   26   27 ar
    31   27   28 ar
    32    1   29 1
    33    1   30 1
    34    1   31 1
    35    2   32 1
    36    6   33 1
    37    7   34 1
    38    8   35 1
    39    9   36 1
    40   13   37 1
    41   14   38 1
    42   17   39 1
    43   18   40 1
    44   21   41 1
    45   22   42 1
    46   24   43 1
    47   25   44 1
    48   26   45 1
    49   27   46 1
@<TRIPOS>MOLECULE
~{N}-methyl-2-[[3-[(~{E})-2-(2-pyridyl)vinyl]-1~{H}-indazol-6-yl]sulfanyl]benzamide
   46    49     0     0     0
SMALL
USER_CHARGES

@<TRIPOS>ATOM
      1 C1          0.9508    4.0732   -3.3048 C.3       1 MOL         0.0802
      2 N1          0.5240    2.7001   -3.4503 N.am      1 MOL        -0.5743
      3 C2          1.0010    1.6839   -2.6376 C.2       1 MOL         0.6672
      4 O1          1.8154    1.8333   -1.7305 O.2       1 MOL        -0.5832
      5 C3          0.4937    0.3472   -2.9269 C.ar      1 MOL        -0.1328
      6 C4          0.7408   -0.1789   -4.1949 C.ar      1 MOL        -0.0937
      7 C5          0.2790   -1.4534   -4.5233 C.ar      1 MOL        -0.1467
      8 C6         -0.4301   -2.2019   -3.5838 C.ar      1 MOL        -0.0974
      9 C7         -0.6773   -1.6757   -2.3158 C.ar      1 MOL        -0.1577
     10 C8         -0.2154   -0.4011   -1.9874 C.ar      1 MOL         0.0287
     11 S1         -0.5618    0.2240   -0.3504 S.3       1 MOL        -0.0864
     12 C9          0.8725   -0.3471    0.5479 C.ar      1 MOL        -0.0352
     13 C10         1.8575   -1.0770   -0.1202 C.ar      1 MOL        -0.1080
     14 C11         2.9942   -1.5392    0.5550 C.ar      1 MOL        -0.0801
     15 C12         3.1242   -1.2526    1.9242 C.ar      1 MOL        -0.1729
     16 C13         2.1285   -0.5238    2.5651 C.ar      1 MOL         0.0545
     17 C14         0.9878   -0.0537    1.9107 C.ar      1 MOL        -0.0801
     18 N2          2.5420   -0.4150    3.8654 N.pl3     1 MOL        -0.3860
     19 N3          3.7190   -1.0102    4.1207 N.2       1 MOL        -0.3947
     20 C15         4.0702   -1.5186    2.9374 C.2       1 MOL         0.3773
     21 C16         5.2721   -2.2471    2.7384 C.2       1 MOL        -0.1776
     22 C17         6.4916   -1.7259    2.3771 C.2       1 MOL        -0.1980
     23 C18         7.7435   -2.4801    2.1895 C.ar      1 MOL         0.4459
     24 C19         7.9725   -3.6340    2.9215 C.ar      1 MOL        -0.2368
     25 C20         9.1677   -4.3123    2.7100 C.ar      1 MOL        -0.0928
     26 C21        10.0843   -3.8228    1.7861 C.ar      1 MOL        -0.2453
     27 C22         9.7607   -2.6606    1.1048 C.ar      1 MOL         0.3986
     28 N4          8.6098   -1.9741    1.2833 N.ar      1 MOL        -0.6566
     29 H1          1.8289    4.2616   -3.9279 H         1 MOL         0.0431
     30 H2          1.2079    4.2806   -2.2625 H         1 MOL         0.0431
     31 H3          0.1503    4.7523   -3.6102 H         1 MOL         0.0431
     32 H4         -0.1497    2.4717   -4.1740 H         1 MOL         0.3101
     33 H5          1.2918    0.3940   -4.9367 H         1 MOL         0.1410
     34 H6          0.4709   -1.8630   -5.5109 H         1 MOL         0.1378
     35 H7         -0.7892   -3.1942   -3.8396 H         1 MOL         0.1360
     36 H8         -1.2321   -2.2760   -1.5988 H         1 MOL         0.1467
     37 H9          1.7598   -1.3008   -1.1806 H         1 MOL         0.1544
     38 H10         3.7515   -2.1056    0.0213 H         1 MOL         0.1449
     39 H11         0.2325    0.5123    2.4465 H         1 MOL         0.1523
     40 H12         2.0676    0.0523    4.6279 H         1 MOL         0.4865
     41 H13         5.2449   -3.3435    2.9181 H         1 MOL         0.1330
     42 H14         6.5766   -0.6507    2.2385 H         1 MOL         0.1617
     43 H15         7.2522   -4.0102    3.6410 H         1 MOL         0.1438
     44 H16         9.3845   -5.2213    3.2632 H         1 MOL         0.1387
     45 H17        11.0224   -4.3350    1.6058 H         1 MOL         0.1440
     46 H18        10.4421   -2.2365    0.3746 H         1 MOL         0.0235
@<TRIPOS>BOND
     1    1    2 1
     2    2    3 am
     3    3    4 2
     4    3    5 1
     5    5   10 ar
     6    5    6 ar
     7    6    7 ar
     8    7    8 ar
     9    8    9 ar
    10    9   10 ar
    11   10   11 1
    12   11   12 1
    13   12   17 ar
    14   12   13 ar
    15   13   14 ar
    16   14   15 ar
    17   15   20 1
    18   15   16 ar
    19   16   17 ar
    20   16   18 1
    21   18   19 1
    22   19   20 2
    23   20   21 1
    24   21   22 2
    25   22   23 1
    26   23   28 ar
    27   23   24 ar
    28   24   25 ar
    29   25   26 ar
    30   26   27 ar
    31   27   28 ar
    32    1   29 1
    33    1   30 1
    34    1   31 1
    35    2   32 1
    36    6   33 1
    37    7   34 1
    38    8   35 1
    39    9   36 1
    40   13   37 1
    41   14   38 1
    42   17   39 1
    43   18   40 1
    44   21   41 1
    45   22   42 1
    46   24   43 1
    47   25   44 1
    48   26   45 1
    49   27   46 1
@<TRIPOS>MOLECULE
~{N}-methyl-2-[[3-[(~{E})-2-(2-pyridyl)vinyl]-1~{H}-indazol-6-yl]sulfanyl]benzamide
   46    49     0     0     0
SMALL
USER_CHARGES

@<TRIPOS>ATOM
      1 C1         -4.0454    2.3746   -1.4456 C.3       1 MOL         0.0802
      2 N1         -3.5351    1.1808   -0.8107 N.am      1 MOL        -0.5743
      3 C2         -3.4768   -0.0404   -1.4632 C.2       1 MOL         0.6672
      4 O1         -3.8416   -0.2376   -2.6193 O.2       1 MOL        -0.5832
      5 C3         -2.9604   -1.1566   -0.6787 C.ar      1 MOL        -0.1328
      6 C4         -3.7996   -2.2535   -0.4830 C.ar      1 MOL        -0.0937
      7 C5         -3.3550   -3.3482    0.2585 C.ar      1 MOL        -0.1467
      8 C6         -2.0714   -3.3459    0.8043 C.ar      1 MOL        -0.0974
      9 C7         -1.2323   -2.2489    0.6087 C.ar      1 MOL        -0.1577
     10 C8         -1.6769   -1.1542   -0.1328 C.ar      1 MOL         0.0287
     11 S1         -0.5618    0.2240   -0.3504 S.3       1 MOL        -0.0864
     12 C9          0.8725   -0.3471    0.5479 C.ar      1 MOL        -0.0352
     13 C10         1.8575   -1.0770   -0.1202 C.ar      1 MOL        -0.1080
     14 C11         2.9942   -1.5392    0.5550 C.ar      1 MOL        -0.0801
     15 C12         3.1242   -1.2526    1.9242 C.ar      1 MOL        -0.1729
     16 C13         2.1285   -0.5238    2.5651 C.ar      1 MOL         0.0545
     17 C14         0.9878   -0.0537    1.9107 C.ar      1 MOL        -0.0801
     18 N2          2.5420   -0.4150    3.8654 N.pl3     1 MOL        -0.3860
     19 N3          3.7190   -1.0102    4.1207 N.2       1 MOL        -0.3947
     20 C15         4.0702   -1.5186    2.9374 C.2       1 MOL         0.3773
     21 C16         5.2721   -2.2471    2.7384 C.2       1 MOL        -0.1776
     22 C17         5.3756   -3.5472    2.3043 C.2       1 MOL        -0.1980
     23 C18         6.6241   -4.2968    2.0793 C.ar      1 MOL         0.4459
     24 C19         7.7499   -4.0085    2.8340 C.ar      1 MOL        -0.2368
     25 C20         8.9046   -4.7424    2.5864 C.ar      1 MOL        -0.0928
     26 C21         8.8983   -5.7282    1.6059 C.ar      1 MOL        -0.2453
     27 C22         7.7212   -5.9396    0.9063 C.ar      1 MOL         0.3986
     28 N4          6.5798   -5.2468    1.1186 N.ar      1 MOL        -0.6566
     29 H1         -5.1216    2.4603   -1.2745 H         1 MOL         0.0431
     30 H2         -3.8621    2.3376   -2.5228 H         1 MOL         0.0431
     31 H3         -3.5524    3.2605   -1.0364 H         1 MOL         0.0431
     32 H4         -3.2075    1.2389    0.1480 H         1 MOL         0.3101
     33 H5         -4.8025   -2.2680   -0.9025 H         1 MOL         0.1410
     34 H6         -4.0087   -4.2022    0.4114 H         1 MOL         0.1378
     35 H7         -1.7255   -4.1984    1.3811 H         1 MOL         0.1360
     36 H8         -0.2357   -2.2679    1.0430 H         1 MOL         0.1467
     37 H9          1.7598   -1.3008   -1.1806 H         1 MOL         0.1544
     38 H10         3.7515   -2.1056    0.0213 H         1 MOL         0.1449
     39 H11         0.2325    0.5123    2.4465 H         1 MOL         0.1523
     40 H12         2.0676    0.0523    4.6279 H         1 MOL         0.4865
     41 H13         6.2315   -1.7162    2.9193 H         1 MOL         0.1330
     42 H14         4.4637   -4.0901    2.0677 H         1 MOL         0.1617
     43 H15         7.7473   -3.2376    3.5979 H         1 MOL         0.1438
     44 H16         9.8077   -4.5477    3.1571 H         1 MOL         0.1387
     45 H17         9.7871   -6.3118    1.3958 H         1 MOL         0.1440
     46 H18         7.6642   -6.6958    0.1303 H         1 MOL         0.0235
@<TRIPOS>BOND
     1    1    2 1
     2    2    3 am
     3    3    4 2
     4    3    5 1
     5    5   10 ar
     6    5    6 ar
     7    6    7 ar
     8    7    8 ar
     9    8    9 ar
    10    9   10 ar
    11   10   11 1
    12   11   12 1
    13   12   17 ar
    14   12   13 ar
    15   13   14 ar
    16   14   15 ar
    17   15   20 1
    18   15   16 ar
    19   16   17 ar
    20   16   18 1
    21   18   19 1
    22   19   20 2
    23   20   21 1
    24   21   22 2
    25   22   23 1
    26   23   28 ar
    27   23   24 ar
    28   24   25 ar
    29   25   26 ar
    30   26   27 ar
    31   27   28 ar
    32    1   29 1
    33    1   30 1
    34    1   31 1
    35    2   32 1
    36    6   33 1
    37    7   34 1
    38    8   35 1
    39    9   36 1
    40   13   37 1
    41   14   38 1
    42   17   39 1
    43   18   40 1
    44   21   41 1
    45   22   42 1
    46   24   43 1
    47   25   44 1
    48   26   45 1
    49   27   46 1
