@<TRIPOS>MOLECULE
~{N}-methyl-2-[[3-[(~{E})-2-(2-pyridyl)vinyl]-1~{H}-indazol-6-yl]sulfanyl]benzamide
   46    49     0     0     0
SMALL
USER_CHARGES

@<TRIPOS>ATOM
      1 C1          0.9508    4.0732   -3.3048 C.3       1 MOL         0.0802
      2 N1          0.5240    2.7001   -3.4503 N.am      1 MOL        -0.5743
      3 C2          1.0010    1.6839   -2.6376 C.2       1 MOL         0.6672
      4 O1          1.8154    1.8333   -1.7305 O.2       1 MOL        -0.5832
      5 C3          0.4937    0.3472   -2.9269 C.ar      1 MOL        -0.1328
      6 C4          0.7408   -0.1789   -4.1949 C.ar      1 MOL        -0.0937
      7 C5          0.2790   -1.4534   -4.5233 C.ar      1 MOL        -0.1467
      8 C6         -0.4301   -2.2019   -3.5838 C.ar      1 MOL        -0.0974
      9 C7         -0.6773   -1.6757   -2.3158 C.ar      1 MOL        -0.1577
     10 C8         -0.2154   -0.4011   -1.9874 C.ar      1 MOL         0.0287
     11 S1         -0.5618    0.2240   -0.3504 S.3       1 MOL        -0.0864
     12 C9          0.8725   -0.3471    0.5479 C.ar      1 MOL        -0.0352
     13 C10         1.8575   -1.0770   -0.1202 C.ar      1 MOL        -0.1080
     14 C11         2.9942   -1.5392    0.5550 C.ar      1 MOL        -0.0801
     15 C12         3.1242   -1.2526    1.9242 C.ar      1 MOL        -0.1729
     16 C13         2.1285   -0.5238    2.5651 C.ar      1 MOL         0.0545
     17 C14         0.9878   -0.0537    1.9107 C.ar      1 MOL        -0.0801
     18 N2          2.5420   -0.4150    3.8654 N.pl3     1 MOL        -0.3860
     19 N3          3.7190   -1.0102    4.1207 N.2       1 MOL        -0.3947
     20 C15         4.0702   -1.5186    2.9374 C.2       1 MOL         0.3773
     21 C16         5.2721   -2.2471    2.7384 C.2       1 MOL        -0.1776
     22 C17         6.4916   -1.7259    2.3771 C.2       1 MOL        -0.1980
     23 C18         7.7435   -2.4801    2.1895 C.ar      1 MOL         0.4459
     24 C19         7.9725   -3.6340    2.9215 C.ar      1 MOL        -0.2368
     25 C20         9.1677   -4.3123    2.7100 C.ar      1 MOL        -0.0928
     26 C21        10.0843   -3.8228    1.7861 C.ar      1 MOL        -0.2453
     27 C22         9.7607   -2.6606    1.1048 C.ar      1 MOL         0.3986
     28 N4          8.6098   -1.9741    1.2833 N.ar      1 MOL        -0.6566
     29 H1          1.8289    4.2616   -3.9279 H         1 MOL         0.0431
     30 H2          1.2079    4.2806   -2.2625 H         1 MOL         0.0431
     31 H3          0.1503    4.7523   -3.6102 H         1 MOL         0.0431
     32 H4         -0.1497    2.4717   -4.1740 H         1 MOL         0.3101
     33 H5          1.2918    0.3940   -4.9367 H         1 MOL         0.1410
     34 H6          0.4709   -1.8630   -5.5109 H         1 MOL         0.1378
     35 H7         -0.7892   -3.1942   -3.8396 H         1 MOL         0.1360
     36 H8         -1.2321   -2.2760   -1.5988 H         1 MOL         0.1467
     37 H9          1.7598   -1.3008   -1.1806 H         1 MOL         0.1544
     38 H10         3.7515   -2.1056    0.0213 H         1 MOL         0.1449
     39 H11         0.2325    0.5123    2.4465 H         1 MOL         0.1523
     40 H12         2.0676    0.0523    4.6279 H         1 MOL         0.4865
     41 H13         5.2449   -3.3435    2.9181 H         1 MOL         0.1330
     42 H14         6.5766   -0.6507    2.2385 H         1 MOL         0.1617
     43 H15         7.2522   -4.0102    3.6410 H         1 MOL         0.1438
     44 H16         9.3845   -5.2213    3.2632 H         1 MOL         0.1387
     45 H17        11.0224   -4.3350    1.6058 H         1 MOL         0.1440
     46 H18        10.4421   -2.2365    0.3746 H         1 MOL         0.0235
@<TRIPOS>BOND
     1    1    2 1
     2    2    3 am
     3    3    4 2
     4    3    5 1
     5    5   10 ar
     6    5    6 ar
     7    6    7 ar
     8    7    8 ar
     9    8    9 ar
    10    9   10 ar
    11   10   11 1
    12   11   12 1
    13   12   17 ar
    14   12   13 ar
    15   13   14 ar
    16   14   15 ar
    17   15   20 1
    18   15   16 ar
    19   16   17 ar
    20   16   18 1
    21   18   19 1
    22   19   20 2
    23   20   21 1
    24   21   22 2
    25   22   23 1
    26   23   28 ar
    27   23   24 ar
    28   24   25 ar
    29   25   26 ar
    30   26   27 ar
    31   27   28 ar
    32    1   29 1
    33    1   30 1
    34    1   31 1
    35    2   32 1
    36    6   33 1
    37    7   34 1
    38    8   35 1
    39    9   36 1
    40   13   37 1
    41   14   38 1
    42   17   39 1
    43   18   40 1
    44   21   41 1
    45   22   42 1
    46   24   43 1
    47   25   44 1
    48   26   45 1
    49   27   46 1
