@<TRIPOS>MOLECULE
4phepyrFOH_zwitterion
   22    23     0     0     0
SMALL
NO_CHARGES

@<TRIPOS>ATOM
      1 C1          1.8851   -1.0363   -0.1124 C.ar      1 <0>         0.0000
      2 C2          0.8066   -0.4630    0.5610 C.ar      1 <0>         0.0000
      3 C3          4.8300   -1.4422   -0.9300 C.ar      1 <0>         0.0000
      4 C4          4.3215   -3.5774    0.0626 C.ar      1 <0>         0.0000
      5 C5          1.7997   -1.0786    2.6757 C.ar      1 <0>         0.0000
      6 C6          5.8942   -2.0379   -1.5920 C.ar      1 <0>         0.0000
      7 C7          5.3985   -4.1191   -0.6245 C.ar      1 <0>         0.0000
      8 C8          2.9210   -1.6309    0.6081 C.ar      1 <0>         0.0000
      9 C9          4.0379   -2.2241   -0.0949 C.ar      1 <0>         0.0000
     10 C10         0.7638   -0.4841    1.9551 C.ar      1 <0>         0.0000
     11 C11         2.8783   -1.6520    2.0022 C.ar      1 <0>         0.0000
     12 N1          6.1449   -3.3433   -1.4223 N.ar      1 <0>         0.0000
     13 O1         -0.2265    0.0429    2.5739 O.3       1 <0>         0.0000
     14 F1          3.8662   -2.2200    2.7093 F         1 <0>         0.0000
     15 H1          1.9040   -1.0129   -1.1996 H         1 <0>         0.0000
     16 H2          0.0106   -0.0065   -0.0255 H         1 <0>         0.0000
     17 H3          4.6322   -0.3837   -1.0715 H         1 <0>         0.0000
     18 H4          3.7200   -4.2115    0.7073 H         1 <0>         0.0000
     19 H5          1.7912   -1.1085    3.7641 H         1 <0>         0.0000
     20 H6          6.5616   -1.5089   -2.2583 H         1 <0>         0.0000
     21 H7          5.6922   -5.1578   -0.5625 H         1 <0>         0.0000
     22 H8          6.9311   -3.7615   -1.9189 H         1 <0>         0.0000
@<TRIPOS>BOND
     1    1    2 ar
     2    1    8 ar
     3    2   10 ar
     4    3    6 ar
     5    3    9 ar
     6    4    7 ar
     7    4    9 ar
     8    5   10 ar
     9    5   11 ar
    10    6   12 ar
    11    7   12 ar
    12    8    9 1
    13    8   11 ar
    14   10   13 1
    15   11   14 1
    16    1   15 1
    17    2   16 1
    18    3   17 1
    19    4   18 1
    20    5   19 1
    21    6   20 1
    22    7   21 1
    23   12   22 1
