@<TRIPOS>MOLECULE
(2~{S},3~{R},4~{S},5~{R})-tetrahydropyran-2,3,4,5-tetrol
   20    20     0     0     0
SMALL
NO_CHARGES

@<TRIPOS>ATOM
      1 C1          0.3518   -0.7182   -0.7492 C.3       1 MOL         0.0000
      2 C2          0.3582   -2.1205   -0.1525 C.3       1 MOL         0.0000
      3 H1          0.9176   -2.1172    0.7901 H         1 MOL         0.0000
      4 C3          0.9789   -3.1305   -1.1188 C.3       1 MOL         0.0000
      5 H2          0.2983   -3.3629   -1.9435 H         1 MOL         0.0000
      6 C4          2.3186   -2.6088   -1.6402 C.3       1 MOL         0.0000
      7 H3          3.0488   -2.6375   -0.8221 H         1 MOL         0.0000
      8 C5          2.2077   -1.1754   -2.1650 C.3       1 MOL         0.0000
      9 H4          3.2352   -0.7980   -2.3767 H         1 MOL         0.0000
     10 O1          1.6553   -0.3163   -1.1639 O.3       1 MOL         0.0000
     11 O2          1.4907   -1.0975   -3.3960 O.3       1 MOL         0.0000
     12 O3          2.8090   -3.4532   -2.6757 O.3       1 MOL         0.0000
     13 O4          1.2211   -4.3586   -0.4301 O.3       1 MOL         0.0000
     14 O5         -0.9852   -2.4860    0.1441 O.3       1 MOL         0.0000
     15 H5          0.0003   -0.0004    0.0004 H         1 MOL         0.0000
     16 H6         -0.3511   -0.6426   -1.5882 H         1 MOL         0.0000
     17 H7          1.4739   -0.1609   -3.6447 H         1 MOL         0.0000
     18 H8          3.6545   -3.0755   -2.9653 H         1 MOL         0.0000
     19 H9          1.6120   -4.9634   -1.0785 H         1 MOL         0.0000
     20 H10        -0.9534   -3.3793    0.5213 H         1 MOL         0.0000
@<TRIPOS>BOND
     1    1   10 1
     2    1    2 1
     3    2    3 1
     4    2    4 1
     5    4    5 1
     6    4    6 1
     7    6    7 1
     8    6    8 1
     9    8    9 1
    10    8   10 1
    11    8   11 1
    12    6   12 1
    13    4   13 1
    14    2   14 1
    15    1   15 1
    16    1   16 1
    17   11   17 1
    18   12   18 1
    19   13   19 1
    20   14   20 1
